ELMER SOLVER (v 9.0) STARTED AT: 2021/09/06 13:47:42
ParCommInit:  Initialize #PEs:            1
MAIN: 
MAIN: =============================================================
MAIN: ElmerSolver finite element software, Welcome!
MAIN: This program is free software licensed under (L)GPL
MAIN: Copyright 1st April 1995 - , CSC - IT Center for Science Ltd.
MAIN: Webpage http://www.csc.fi/elmer, Email elmeradm@csc.fi
MAIN: Version: 9.0 (Rev: b762e1b6, Compiled: 2021-06-21)
MAIN:  Running one task without MPI parallelization.
MAIN:  Running with just one thread per task.
MAIN:  HYPRE library linked in.
MAIN:  MUMPS library linked in.
MAIN:  Lua interpreter linked in.
MAIN: =============================================================
LoadInputFile: Trying to read "Run Control" section only
MAIN: 
MAIN: 
MAIN: -------------------------------------
MAIN: Reading Model: S2.sif
LoadInputFile: Scanning input file: S2.sif
LoadInputFile: Scanning only size info
LoadInputFile: First time visiting
LoadInputFile: Reading base load of sif file
LoadInputFile: Loading input file: S2.sif
LoadInputFile: Reading base load of sif file
CheckKeyword:  Unlisted keyword: [water density] in section: [constants]
CheckKeyword:  Unlisted keyword: [buoyancy use basal melt] in section: [constants]
CheckKeyword:  Unlisted keyword: [sea level] in section: [constants]
CheckKeyword:  Unlisted keyword: [gamma 0] in section: [constants]
CheckKeyword:  Unlisted keyword: [ice density] in section: [constants]
CheckKeyword:  Unlisted keyword: [sw density] in section: [constants]
CheckKeyword:  Unlisted keyword: [latent heat] in section: [constants]
CheckKeyword:  Unlisted keyword: [sw cp] in section: [constants]
CheckKeyword:  Unlisted keyword: [sea level] in section: [material 1]
CheckKeyword:  Unlisted keyword: [top surface variable name] in section: [solver 1]
CheckKeyword:  Unlisted keyword: [bottom surface variable name] in section: [solver 1]
CheckKeyword:  Unlisted keyword: [correct surface] in section: [solver 1]
CheckKeyword:  Unlisted keyword: [minimum height] in section: [solver 1]
CheckKeyword:  Unlisted keyword: [toler] in section: [solver 2]
CheckKeyword:  Unlisted keyword: [bedrock variable] in section: [solver 2]
WARNING:: LoadInputFile: There are no BCs in the system!
LoadInputFile: Number of Body Forces: 1
WARNING:: LoadInputFile: Entry missing for: Body Force 1
LoadInputFile: Number of Initial Conditions: 1
WARNING:: LoadInputFile: Entry missing for: Initial Condition 1
LoadInputFile: Number of Materials: 1
LoadInputFile: Number of Equations: 1
LoadInputFile: Number of Solvers: 4
LoadInputFile: Number of Bodies: 1
Loading user function library: [StructuredMeshMapper]...[StructuredMeshMapper_Init0]
Loading user function library: [ElmerIceSolvers]...[GroundedSolver_Init0]
Loading user function library: [StructuredProjectToPlane]...[StructuredProjectToPlane_Init0]
Loading user function library: [ResultOutputSolve]...[ResultOutputSolver_Init0]
LoadMesh: Starting
ElmerAsciiMesh: Performing step: 1
ElmerAsciiMesh: Base mesh name: ./../mesh/
InitializeMesh: Number of nodes in mesh: 41037
InitializeMesh: Number of bulk elements in mesh: 79937
InitializeMesh: Number of boundary elements in mesh: 2135
ElmerAsciiMesh: Performing step: 2
SetMeshDimension: Dimension of mesh is: 2
SetMeshDimension: Max dimension of mesh is: 2
ElmerAsciiMesh: Performing step: 3
ElmerAsciiMesh: Performing step: 4
PermuteNodeNumbering: Performing node mapping
MapBodiesAndBCs: Remapping boundaries
MapBodiesAndBCs: Minimum initial boundary index: 1
MapBodiesAndBCs: Maximum initial boundary index: 5
ElmerAsciiMesh: Performing step: 5
ElmerAsciiMesh: Performing step: 6
LoadMesh: Loading mesh done
LoadMesh: Elapsed REAL time:     0.2467 (s)
MeshStabParams: Computing stabilization parameters
MeshStabParams: Elapsed REAL time:     0.0091 (s)
UnitSegmentDivision: Creating functional division
UnitSegmentDivision: Convergence obtained in 135 iterations
UnitSegmentDivision: Mesh division ready
UnitSegmentDivision: w(0) :   0.0000E+00
UnitSegmentDivision: w(1) :   3.7444E-02
UnitSegmentDivision: w(2) :   7.8392E-02
UnitSegmentDivision: w(3) :   1.2317E-01
UnitSegmentDivision: w(4) :   1.7215E-01
UnitSegmentDivision: w(5) :   2.2571E-01
UnitSegmentDivision: w(6) :   2.8428E-01
UnitSegmentDivision: w(7) :   3.4833E-01
UnitSegmentDivision: w(8) :   4.1838E-01
UnitSegmentDivision: w(9) :   4.9499E-01
UnitSegmentDivision: w(10) :   5.7877E-01
UnitSegmentDivision: w(11) :   6.7039E-01
UnitSegmentDivision: w(12) :   7.7059E-01
UnitSegmentDivision: w(13) :   8.8017E-01
UnitSegmentDivision: w(14) :   1.0000E+00
MeshExtrude: First Extruded BC set to: 1
MeshExtrude: Number of new BCs for layers: 1
SetMeshDimension: Dimension of mesh is: 3
SetMeshDimension: Max dimension of mesh is: 3
NonNodalElements: Requested elements require creation of edges
FindMeshEdges: Determining faces in 3D mesh
FindMeshEdges: Determining edges in 3D mesh
MAIN: -------------------------------------
AddEquationBasics: Setting up solver: mapcoordinate_init
Loading user function library: [StructuredMeshMapper]...[StructuredMeshMapper_Init]
Loading user function library: [StructuredMeshMapper]...[StructuredMeshMapper_bulk]
Loading user function library: [StructuredMeshMapper]...[StructuredMeshMapper]
AddEquationBasics: Setting up solver: groundedmask
Loading user function library: [ElmerIceSolvers]...[GroundedSolver_Init]
Loading user function library: [ElmerIceSolvers]...[GroundedSolver_bulk]
Loading user function library: [ElmerIceSolvers]...[GroundedSolver]
AddEquationBasics: Creating standard variable: groundedmask
OptimizeBandwidth: ---------------------------------------------------------
OptimizeBandwidth: Computing matrix structure for: groundedmask...done.
OptimizeBandwidth: Half bandwidth without optimization: 81584
OptimizeBandwidth: 
OptimizeBandwidth: Bandwidth Optimization ...done.
OptimizeBandwidth: Half bandwidth after optimization: 4423
OptimizeBandwidth: ---------------------------------------------------------
AddEquationBasics: Setting up solver: heightdepth
Loading user function library: [StructuredProjectToPlane]...[StructuredProjectToPlane_Init]
Loading user function library: [StructuredProjectToPlane]...[StructuredProjectToPlane_bulk]
Loading user function library: [StructuredProjectToPlane]...[StructuredProjectToPlane]
AddEquationBasics: Setting up solver: resultoutput
Loading user function library: [ResultOutputSolve]...[ResultOutputSolver_Init]
Loading user function library: [ResultOutputSolve]...[ResultOutputSolver_bulk]
Loading user function library: [ResultOutputSolve]...[ResultOutputSolver]
Restart: Perfoming global Restart for:
LoadRestartFile: 
LoadRestartFile: --------------------------------------------
LoadRestartFile: Restart for mesh name:
LoadRestartFile: Restart for number of nodes: 615555
LoadRestartFile: Reading data from file: ../S1/readnc.result
LoadRestartFile: ASCII 3
LoadRestartFile: Reading ascii restart file version 3
LoadRestartFile: Total number of dofs in restart file: 4
LoadRestartFile: Creating variable: vx
LoadRestartFile: Creating variable: vy
LoadRestartFile: Creating variable: b
LoadRestartFile: Creating variable: h
LoadRestartFile: Reading time sequence:    1.000E-01
LoadRestartFile: Reading variables on timestep: 1
LoadRestartFile: Time spent for restart (s):      2.3653E+00
LoadRestartFile: All done
LoadRestartFile: --------------------------------------------
ElmerSolver: Number of timesteps to be saved: 1
SingleSolver: Attempting to call solver
SingleSolver: Solver Equation string is: mapcoordinate_init
StructuredMeshMapper: ---------------------------------------
StructuredMeshMapper: Performing mapping on a structured mesh
StructuredMeshMapper: ---------------------------------------
StructuredMeshMapper: Defaulting "Recompute Stabilization" to True.
DetectExtrudedStructure: Determining extruded structure
DetectExtrudedStructure: Unit vector of direction:   0.000   0.000   1.000
DetectExtrudedStructure: determine top and bottom pointers
DetectExtrudedStructure: Layered structure detected in 14 cycles
DetectExtrudedStructure:  Top and bottom pointer init time:   0.18977999999999895
DetectExtrudedStructure: Top and bottom pointer init rounds: 14
DetectExtrudedStructure: Number of nodes at the top: 41037
DetectExtrudedStructure: Number of nodes at the bottom: 41037
StructuredMeshMapper: Adjusting upper surface to maintain minimum height to: 0.1100E+02
StructuredMeshMapper: > Correct Surface < in case of intersecting upper and lower surface
StructuredMeshMapper:  Active coordinate mapping time:    7.5539999999989504E-003
MeshStabParams: Computing stabilization parameters
MeshStabParams: Elapsed REAL time:     0.1858 (s)
Loading user function library: [StructuredMeshMapper]...[StructuredMeshMapper_post]
SingleSolver: Attempting to call solver
SingleSolver: Solver Equation string is: groundedmask
GroundedSolver: Computing grounded mask from geometry
GroundedSolver: Memory allocation done.
GroundedSolver: Bedrock Variable name found
GroundedSolver: No front variable defined. Some basal frontal nodes may be left with GroundedMask=1
 Grounding Line, (x,y)   553617.16371700005        8709347.5611400008     
 Grounding Line, (x,y)   553617.05568300001        8709347.6161199994     
 Grounding Line, (x,y)   553616.99188900006        8709347.9856400006     
 Grounding Line, (x,y)   553617.31698799995        8709347.5038099997     
 Grounding Line, (x,y)   553458.06454699999        8709743.8580200002     
 Grounding Line, (x,y)   553458.12862600002        8709743.5839699991     
 Grounding Line, (x,y)   553457.96240399999        8709743.7008599993     
 Grounding Line, (x,y)   553458.33729599998        8709743.5550400000     
 Grounding Line, (x,y)   553017.41269999999        8710111.9003999997     
 Grounding Line, (x,y)   553017.70497199998        8710111.8268899992     
 Grounding Line, (x,y)   553017.52028399997        8710111.7935700007     
 Grounding Line, (x,y)   553017.43043399998        8710112.0385299996     
 Grounding Line, (x,y)   553799.96189499996        8709229.2986999992     
 Grounding Line, (x,y)   553799.70610800001        8709229.8054099996     
 Grounding Line, (x,y)   553800.90063000005        8709228.9500200003     
 Grounding Line, (x,y)   552704.33330800000        8710242.5934500005     
 Grounding Line, (x,y)   552707.80195700005        8710239.1736500002     
 Grounding Line, (x,y)   552705.78422999999        8710239.9716200009     
 Grounding Line, (x,y)   553017.40178800002        8710111.8359299991     
 Grounding Line, (x,y)   553458.06425599998        8709743.5362500008     
 Grounding Line, (x,y)   553458.00743600004        8709743.6087900009     
 Grounding Line, (x,y)   553472.53194999998        8709638.4123100005     
 Grounding Line, (x,y)   553472.29198200000        8709638.7034200002     
 Grounding Line, (x,y)   553473.08188700001        8709638.3362900000     
 Grounding Line, (x,y)   553458.84893600002        8709742.3379400000     
 Grounding Line, (x,y)   553459.06192600005        8709742.1190200001     
 Grounding Line, (x,y)   553458.65645200002        8709742.1573900003     
 Grounding Line, (x,y)   553799.53694000002        8709230.5903699994     
 Grounding Line, (x,y)   553045.38909499999        8710092.8545299992     
 Grounding Line, (x,y)   553045.22165800002        8710092.8939699996     
 Grounding Line, (x,y)   553045.48159099999        8710092.9552100003     
 Grounding Line, (x,y)   553046.66184900003        8710092.4552400000     
 Grounding Line, (x,y)   553046.88365800004        8710092.4863699991     
 Grounding Line, (x,y)   553046.72616399999        8710092.3585000001     
 Grounding Line, (x,y)   553546.90375900001        8709479.3979199994     
 Grounding Line, (x,y)   553546.92760499998        8709479.5330299996     
 Grounding Line, (x,y)   553547.12815700006        8709479.3164600004     
 Grounding Line, (x,y)   553656.07706200005        8709320.5801899992     
 Grounding Line, (x,y)   553655.72963299998        8709320.8665299993     
 Grounding Line, (x,y)   553656.50212099997        8709320.6169600002     
 Grounding Line, (x,y)   553547.12747399998        8709479.7542700004     
 Grounding Line, (x,y)   553592.80535000004        8709386.2581900004     
 Grounding Line, (x,y)   553592.98345599999        8709386.2388899997     
 Grounding Line, (x,y)   553592.81085200002        8709386.1384100001     
 Grounding Line, (x,y)   553472.18044599995        8709638.9499500003     
 Grounding Line, (x,y)   553472.72888199997        8709638.0504100006     
 Grounding Line, (x,y)   553472.68707999995        8709637.8629400004     
 Grounding Line, (x,y)   553046.67077800003        8710092.6604999993     
 Grounding Line, (x,y)   553458.70361199998        8709743.2274799999     
 Grounding Line, (x,y)   553458.98081700003        8709743.3394699991     
 Grounding Line, (x,y)   553458.77925000002        8709743.2045699991     
 Grounding Line, (x,y)   553593.08317600004        8709384.9180599991     
 Grounding Line, (x,y)   553593.25320699997        8709384.2038599998     
 Grounding Line, (x,y)   553592.97648099996        8709384.6436599996     
 Grounding Line, (x,y)   553215.54708299995        8710028.0647500008     
 Grounding Line, (x,y)   553218.94330499996        8710023.0717900004     
 Grounding Line, (x,y)   553217.12279199995        8710024.1417399999     
 Grounding Line, (x,y)   553126.47222100000        8710055.1968799997     
 Grounding Line, (x,y)   553126.59320899996        8710055.4559799992     
 Grounding Line, (x,y)   553126.56478999997        8710055.0622300003     
 Grounding Line, (x,y)   553472.58927100000        8709706.9592300002     
 Grounding Line, (x,y)   553472.58003800001        8709707.0568400007     
 Grounding Line, (x,y)   553479.75815400004        8709705.3430799991     
 Grounding Line, (x,y)   553472.59850399999        8709706.8616199996     
 Grounding Line, (x,y)   553472.60773799999        8709706.7640099991     
 Grounding Line, (x,y)   553472.61697099998        8709706.6664000005     
 Grounding Line, (x,y)   553472.62620399997        8709706.5687899999     
 Grounding Line, (x,y)   553472.63543799997        8709706.4711799994     
 Grounding Line, (x,y)   553472.64467099996        8709706.3735700008     
 Grounding Line, (x,y)   553472.65390399995        8709706.2759600002     
 Grounding Line, (x,y)   553472.66313700005        8709706.1783499997     
 Grounding Line, (x,y)   553472.67345700006        8709706.0692599993     
 Grounding Line, (x,y)   552987.16683500004        8710139.6756400000     
 Grounding Line, (x,y)   552986.74292100000        8710135.4726700000     
 Grounding Line, (x,y)   552986.65213599999        8710135.5117099993     
 Grounding Line, (x,y)   552986.56134999997        8710135.5507399999     
 Grounding Line, (x,y)   552986.47056499997        8710135.5897799991     
 Grounding Line, (x,y)   552986.37977999996        8710135.6288200002     
 Grounding Line, (x,y)   553472.68779800006        8709705.9176599998     
 Grounding Line, (x,y)   552986.28899399994        8710135.6678599995     
 Grounding Line, (x,y)   552986.19820900005        8710135.7068900000     
 Grounding Line, (x,y)   552986.10742400005        8710135.7459299993     
 Grounding Line, (x,y)   552986.01663800003        8710135.7849700004     
 Grounding Line, (x,y)   552985.92585300002        8710135.8240099996     
 Grounding Line, (x,y)   552985.83506800001        8710135.8630500007     
 Grounding Line, (x,y)   553825.77338000003        8709219.7115700003     
 Grounding Line, (x,y)   553823.93821399997        8709220.3932099994     
 Grounding Line, (x,y)   553829.50255099998        8709225.7089799996     
 Grounding Line, (x,y)   553592.61964000005        8709386.4738599993     
 Grounding Line, (x,y)   553592.53438299999        8709386.9133100007     
 Grounding Line, (x,y)   553592.69087399996        8709386.4544399995     
 Grounding Line, (x,y)   553459.22524599999        8709742.6586399991     
 Grounding Line, (x,y)   553266.34440700000        8710001.2804499995     
 Grounding Line, (x,y)   553263.04861099995        8709997.1502500009     
 Grounding Line, (x,y)   553262.96307699999        8709997.2005199995     
 Grounding Line, (x,y)   553262.87754300004        8709997.2507900000     
 Grounding Line, (x,y)   553495.31971099996        8709595.6978099998     
 Grounding Line, (x,y)   553495.30926200002        8709595.7867200002     
 Grounding Line, (x,y)   553495.43503199995        8709595.9772599991     
 Grounding Line, (x,y)   553169.75098999997        8710047.8320799991     
 Grounding Line, (x,y)   553174.50918800000        8710049.1201099996     
 Grounding Line, (x,y)   553169.84041299997        8710047.7877900004     
 Grounding Line, (x,y)   553416.76551399997        8709833.3667900003     
 Grounding Line, (x,y)   553414.20279000001        8709827.7530600000     
 Grounding Line, (x,y)   553414.12393400003        8709827.8127800003     
 Grounding Line, (x,y)   553414.04507700005        8709827.8725000005     
 Grounding Line, (x,y)   553413.96621999994        8709827.9322100002     
 Grounding Line, (x,y)   553472.73586999997        8709705.4094699994     
 Grounding Line, (x,y)   553413.88736399997        8709827.9919300005     
 Grounding Line, (x,y)   553560.47592899995        8709493.4801400006     
 Grounding Line, (x,y)   553545.66154000000        8709484.3234899994     
 Grounding Line, (x,y)   553545.04981100000        8709488.5789999999     
 Grounding Line, (x,y)   553413.80850699998        8709828.0516500007     
 Grounding Line, (x,y)   553413.72964999999        8709828.1113600004     
 Grounding Line, (x,y)   553413.65079400002        8709828.1710800007     
 Grounding Line, (x,y)   553413.57193700003        8709828.2307999991     
 Grounding Line, (x,y)   553413.49308100005        8709828.2905100007     
 Grounding Line, (x,y)   553413.41422399995        8709828.3502300009     
 Grounding Line, (x,y)   553413.32365599996        8709828.4188199993     
 Grounding Line, (x,y)   553169.92983699997        8710047.7434999999     
 Grounding Line, (x,y)   553017.38318200002        8710112.5803599991     
 Grounding Line, (x,y)   553018.11859199998        8710112.2018299997     
 Grounding Line, (x,y)   553017.39648800006        8710112.4460799992     
 Grounding Line, (x,y)   553413.19689699996        8709828.5148099996     
 Grounding Line, (x,y)   553616.75599400001        8709348.0274400003     
 Grounding Line, (x,y)   553616.68848899996        8709348.1120800003     
 Grounding Line, (x,y)   553126.73611399997        8710055.0527400002     
 Grounding Line, (x,y)   553792.94959700003        8709257.1540200002     
 Grounding Line, (x,y)   553798.48833299999        8709258.8686599992     
 Grounding Line, (x,y)   553793.02334299998        8709256.7796199992     
 Grounding Line, (x,y)   553412.76999599999        8709828.8380900007     
 Grounding Line, (x,y)   553472.82980599999        8709704.4164300002     
 Grounding Line, (x,y)   552778.39074199996        8710212.7160000000     
 Grounding Line, (x,y)   552778.71849899995        8710211.7855500001     
 Grounding Line, (x,y)   552778.47215100005        8710211.9340300001     
 Grounding Line, (x,y)   552703.44791500003        8710241.9728100002     
 Grounding Line, (x,y)   552703.66158600000        8710241.8937199991     
 Grounding Line, (x,y)   553793.16829199996        8709256.0437300000     
 Grounding Line, (x,y)   552779.03620099998        8710211.6784400009     
 Grounding Line, (x,y)   553261.99894700001        8709997.7671600003     
 Grounding Line, (x,y)   553261.07470300002        8709998.3103599995     
 Grounding Line, (x,y)   553411.93081199995        8709829.4735899996     
 Grounding Line, (x,y)   553166.84592100000        8710048.3482900001     
 Grounding Line, (x,y)   553164.90928100003        8710048.6520799994     
 Grounding Line, (x,y)   553169.22785799997        8710052.1583200004     
 Grounding Line, (x,y)   553057.25592000003        8710088.5406700000     
 Grounding Line, (x,y)   553052.06351999997        8710090.1900200006     
 Grounding Line, (x,y)   553062.44173500000        8710103.3278100006     
 Grounding Line, (x,y)   553017.45543800003        8710112.2710699998     
 Grounding Line, (x,y)   553017.58221300005        8710112.1220299993     
 Grounding Line, (x,y)   553345.33547100006        8709882.2249800004     
 Grounding Line, (x,y)   553342.10024599999        8709884.9792899992     
 Grounding Line, (x,y)   553356.08343200001        8709891.3024300002     
 Grounding Line, (x,y)   553045.53034699999        8710093.1071099993     
 Grounding Line, (x,y)   553536.14199399995        8709548.6351599991     
 Grounding Line, (x,y)   553536.09497900004        8709548.7233199999     
 Grounding Line, (x,y)   553538.47345199995        8709555.8302900009     
 Grounding Line, (x,y)   553551.93337900005        8709481.6643800009     
 Grounding Line, (x,y)   553502.81379000004        8709610.5758900009     
 Grounding Line, (x,y)   553492.24411600002        8709600.0831099991     
 Grounding Line, (x,y)   553490.39543000003        8709603.8515799996     
 Grounding Line, (x,y)   553079.79687099997        8710081.3805999998     
 Grounding Line, (x,y)   553077.90167699999        8710081.9826100003     
 Grounding Line, (x,y)   553074.74087400001        8710090.9154199995     
 Grounding Line, (x,y)   552779.28538699995        8710211.9070599992     
 Grounding Line, (x,y)   552702.88571099995        8710242.0604899991     
 Grounding Line, (x,y)   553292.01762000006        8709968.6074899994     
 Grounding Line, (x,y)   553283.60342900001        8709955.6091499999     
 Grounding Line, (x,y)   553281.67594600003        8709959.5753199998     
 Grounding Line, (x,y)   553472.66105899995        8709637.5512400009     
 Grounding Line, (x,y)   552610.76684299996        8710293.8097099997     
 Grounding Line, (x,y)   552608.97891499999        8710288.2970199995     
 Grounding Line, (x,y)   552608.89029600006        8710288.3345199991     
 Grounding Line, (x,y)   552608.80167600000        8710288.3720100001     
 Grounding Line, (x,y)   552866.58270399994        8710190.6915799994     
 Grounding Line, (x,y)   552867.22310700000        8710188.8987300005     
 Grounding Line, (x,y)   552867.13030299998        8710188.9303099997     
 Grounding Line, (x,y)   553655.53182599996        8709320.9705999997     
 Grounding Line, (x,y)   553655.58197699999        8709320.8549000006     
 Grounding Line, (x,y)   553575.67234000005        8709441.3887900002     
 Grounding Line, (x,y)   553585.31651399995        8709453.9237099998     
 Grounding Line, (x,y)   553576.88126199995        8709439.8252499998     
 Grounding Line, (x,y)   552867.03749899997        8710188.9618800003     
 Grounding Line, (x,y)   553285.76362400001        8709951.8528499994     
 Grounding Line, (x,y)   553285.92792000005        8709951.8347699996     
 Grounding Line, (x,y)   553285.86469800002        8709951.7188399993     
 Grounding Line, (x,y)   553592.76796400000        8709386.2001499999     
 Grounding Line, (x,y)   553047.57798800000        8710092.9940000009     
 Grounding Line, (x,y)   553458.90043599997        8709743.5238700006     
 Grounding Line, (x,y)   553461.26615699998        8709743.7372299992     
 Grounding Line, (x,y)   553458.81144700001        8709740.7434700001     
 Grounding Line, (x,y)   553125.78932900005        8710055.7031800002     
 Grounding Line, (x,y)   553125.69369300001        8710055.5806499999     
 Grounding Line, (x,y)   553125.53696000006        8710055.6563900001     
 Grounding Line, (x,y)   553458.69178800005        8709743.1877599992     
 Grounding Line, (x,y)   553592.82137300004        8709386.3308799993     
 Grounding Line, (x,y)   553046.41107499995        8710092.9267500006     
 Grounding Line, (x,y)   552703.76416799997        8710241.6367400009     
 Grounding Line, (x,y)   552704.35758600000        8710241.4682800006     
 Grounding Line, (x,y)   552703.75103100005        8710241.4762600008     
 Grounding Line, (x,y)   553472.34470899997        8709639.0498799998     
 Grounding Line, (x,y)   553496.71591999999        8709597.9210400004     
 Grounding Line, (x,y)   553655.94919900002        8709321.0371499993     
 Grounding Line, (x,y)   552703.94020299998        8710241.3026599996     
 Grounding Line, (x,y)   553126.64570200001        8710054.9027299993     
 Grounding Line, (x,y)   553126.75387999997        8710054.8207200002     
 Grounding Line, (x,y)   553341.64235700003        8709890.7404299993     
 Grounding Line, (x,y)   553325.84444000002        8709921.1628699992     
 Grounding Line, (x,y)   553326.22159199999        8709917.4509699997     
 Grounding Line, (x,y)   553326.14602300001        8709917.5136799999     
 Grounding Line, (x,y)   552705.01940100000        8710244.5065599997     
 Grounding Line, (x,y)   553326.07045300002        8709917.5763799995     
 Grounding Line, (x,y)   553551.65985800000        8709472.4449400008     
 Grounding Line, (x,y)   553549.29425399995        8709475.5044500008     
 Grounding Line, (x,y)   553563.74110900005        8709478.0658299997     
 Grounding Line, (x,y)   553325.99488300004        8709917.6390899997     
 Grounding Line, (x,y)   553325.91931400006        8709917.7017999999     
 Grounding Line, (x,y)   553459.21383499994        8709743.1922500003     
 Grounding Line, (x,y)   553472.32303199999        8709637.3997200001     
 Grounding Line, (x,y)   553472.35219500004        8709637.5157699995     
 Grounding Line, (x,y)   553472.43617000000        8709637.4862399995     
 Grounding Line, (x,y)   553495.20865499997        8709596.5935999993     
 Grounding Line, (x,y)   553495.04187399999        8709596.6968799997     
 Grounding Line, (x,y)   552943.49436500005        8710154.7311799992     
 Grounding Line, (x,y)   552943.39253199997        8710154.9268699996     
 Grounding Line, (x,y)   552943.57672699995        8710154.8203200009     
 Grounding Line, (x,y)   553457.46917699999        8709744.4813800007     
 Grounding Line, (x,y)   553044.91450399999        8710092.8393699992     
 Grounding Line, (x,y)   553045.50923800003        8710093.6019299999     
 Grounding Line, (x,y)   553623.78565800004        8709342.2714600004     
 Grounding Line, (x,y)   553620.40974799998        8709344.6457199994     
 Grounding Line, (x,y)   553632.04686400003        8709350.9702100009     
 Grounding Line, (x,y)   553344.09859199997        8709904.4322699998     
 Grounding Line, (x,y)   553336.46312700002        8709892.5786700007     
 Grounding Line, (x,y)   553335.02916699997        8709896.0611400008     
 Grounding Line, (x,y)   553593.02649700001        8709385.3956400007     
 Grounding Line, (x,y)   553593.34779999999        8709384.9233599994     
 Grounding Line, (x,y)   553593.06012899999        8709385.1551500000     
 Grounding Line, (x,y)   553017.25751899998        8710112.9197899997     
 Grounding Line, (x,y)   553664.33232299995        8709318.0291399993     
 Grounding Line, (x,y)   553660.27456199995        8709318.9413500000     
 Grounding Line, (x,y)   553667.62291599996        8709329.0105700009     
 Grounding Line, (x,y)   553122.57090599998        8710069.4893999994     
 Grounding Line, (x,y)   553121.35925700003        8710057.4232400004     
 Grounding Line, (x,y)   553117.61479100003        8710059.6476700008     
 Grounding Line, (x,y)   553459.35283900006        8709739.4218300004     
 Grounding Line, (x,y)   553459.20941799995        8709742.9164199997     
 Grounding Line, (x,y)   553126.61463800003        8710054.9835100006     
 Grounding Line, (x,y)   552943.36909299996        8710154.6672399994     
 Grounding Line, (x,y)   552702.23160099995        8710241.6263100002     
 Grounding Line, (x,y)   552702.26203700004        8710241.4641200006     
 Grounding Line, (x,y)   552702.17368500005        8710241.5101200007     
 Grounding Line, (x,y)   553655.73152200005        8709321.1067399997     
 Grounding Line, (x,y)   553656.04653599998        8709321.6026499998     
 Grounding Line, (x,y)   552703.14676999999        8710241.8491399996     
 Grounding Line, (x,y)   552703.27610300004        8710241.7898299992     
 Grounding Line, (x,y)   553016.26813099999        8710112.4568399992     
 Grounding Line, (x,y)   553016.17755499994        8710112.4975700006     
 Grounding Line, (x,y)   553016.33579899999        8710112.5740900002     
 Grounding Line, (x,y)   553016.15971100004        8710112.6341999993     
 Grounding Line, (x,y)   553292.48978199996        8709945.4411900006     
 Grounding Line, (x,y)   553289.52456000005        8709947.9016999993     
 Grounding Line, (x,y)   553301.39014399995        8709955.2633699998     
 Grounding Line, (x,y)   553126.40575499996        8710055.2681799997     
 Grounding Line, (x,y)   553126.47321400000        8710055.3398899995     
 Grounding Line, (x,y)   553286.49582399998        8709951.7340099998     
 Grounding Line, (x,y)   553286.09668500000        8709951.8328200001     
 Grounding Line, (x,y)   553287.31482199999        8709952.1126199998     
 Grounding Line, (x,y)   552702.35451600002        8710241.5948600005     
 Grounding Line, (x,y)   553592.49873500003        8709386.5255100001     
 Grounding Line, (x,y)   553592.39093100000        8709386.5910599995     
 Grounding Line, (x,y)   553289.73866599996        8709953.9570099991     
 Grounding Line, (x,y)   553651.33523500001        8709322.8959299996     
 Grounding Line, (x,y)   553647.95932499995        8709325.2701999992     
 Grounding Line, (x,y)   553653.45844500000        8709334.2547100000     
 Grounding Line, (x,y)   553613.79952300002        8709351.5499000009     
 Grounding Line, (x,y)   553611.72096099996        8709354.8533299994     
 Grounding Line, (x,y)   553618.88376600004        8709363.5039399993     
 Grounding Line, (x,y)   553799.27519499999        8709229.9588900004     
 Grounding Line, (x,y)   553799.36809500004        8709229.7656599991     
 Grounding Line, (x,y)   553799.15985399997        8709229.8511900008     
 Grounding Line, (x,y)   553046.19058499997        8710092.2266399991     
 Grounding Line, (x,y)   553046.30144800001        8710092.1251999997     
 Grounding Line, (x,y)   553046.13671400002        8710092.1548100002     
 Grounding Line, (x,y)   553046.15673199994        8710092.0662900005     
 Grounding Line, (x,y)   553473.04832599999        8709734.7048899997     
 Grounding Line, (x,y)   553460.41342999996        8709736.8327399995     
 Grounding Line, (x,y)   553798.64896100003        8709230.0020100009     
 Grounding Line, (x,y)   553798.51743699994        8709230.0287299994     
 Grounding Line, (x,y)   553798.60215599998        8709230.0978299994     
 Grounding Line, (x,y)   553798.47536499996        8709230.1395200007     
 Grounding Line, (x,y)   553798.52950399998        8709230.1831299998     
 Grounding Line, (x,y)   553616.52724099997        8709347.9275499992     
 Grounding Line, (x,y)   553616.67607000005        8709347.9478600007     
 Grounding Line, (x,y)   553616.64622899995        8709347.7956300005     
 Grounding Line, (x,y)   552943.73353600001        8710154.8108300008     
 Grounding Line, (x,y)   552943.77646199998        8710154.9429899994     
 Grounding Line, (x,y)   552943.82683699997        8710154.8198700007     
 Grounding Line, (x,y)   553457.17398500000        8709745.4691400006     
 Grounding Line, (x,y)   553881.45206399995        8709156.7889300007     
 Grounding Line, (x,y)   553895.36485200003        8709155.2342000008     
 Grounding Line, (x,y)   553885.68984000001        8709152.2448100001     
 Grounding Line, (x,y)   553547.23199300002        8709478.9216099996     
 Grounding Line, (x,y)   553547.59906000004        8709478.9920199998     
 Grounding Line, (x,y)   553547.23253100005        8709478.8003499992     
 Grounding Line, (x,y)   553024.47147500003        8710106.6684700008     
 Grounding Line, (x,y)   553020.97060600005        8710109.0367099997     
 Grounding Line, (x,y)   553025.66367499996        8710117.3288000003     
 Grounding Line, (x,y)   553655.44349199999        8709320.5589700006     
 Grounding Line, (x,y)   553655.36031500006        8709320.6990499999     
 Grounding Line, (x,y)   553655.47251300002        8709320.6699199993     
 Grounding Line, (x,y)   553593.16027700005        8709385.5197800007     
 Grounding Line, (x,y)   553472.26936499996        8709638.4987000003     
 Grounding Line, (x,y)   553472.33298900002        8709638.5305700004     
 Grounding Line, (x,y)   553472.34348599997        8709638.3944600001     
 Grounding Line, (x,y)   553472.23809700005        8709638.4354400001     
 Grounding Line, (x,y)   553472.23077000002        8709637.5693299994     
 Grounding Line, (x,y)   553495.45976300002        8709595.5142899994     
 Grounding Line, (x,y)   553495.07491600001        8709596.2877099998     
 Grounding Line, (x,y)   553494.96348499996        8709596.3320000004     
 Grounding Line, (x,y)   553495.36856700003        8709596.4003800005     
 Grounding Line, (x,y)   553049.03134999995        8710098.4424300008     
 Grounding Line, (x,y)   553546.41348200000        8709479.9302999992     
 Grounding Line, (x,y)   553546.44308300002        8709479.7887800001     
 Grounding Line, (x,y)   553546.30410099996        8709479.8535099998     
 Grounding Line, (x,y)   553366.13589300006        8709864.5165100005     
 Grounding Line, (x,y)   553362.90066799999        8709867.2708199993     
 Grounding Line, (x,y)   553365.55798399996        8709876.0270399991     
 Grounding Line, (x,y)   553616.75551100005        8709347.8776399996     
 Grounding Line, (x,y)   553130.45899199997        8710054.0560400002     
 Grounding Line, (x,y)   553138.54150000005        8710063.7468500007     
 Grounding Line, (x,y)   553134.24550800002        8710053.4620800000     
 Grounding Line, (x,y)   553798.59909599996        8709229.9499299992     
 Grounding Line, (x,y)   553126.33107099996        8710054.9112100005     
 Grounding Line, (x,y)   553126.23592799995        8710054.9438499995     
 Grounding Line, (x,y)   553126.36125500000        8710055.0169900004     
 Grounding Line, (x,y)   552718.84595100000        8710246.3627400007     
 Grounding Line, (x,y)   552711.78712400002        8710237.5976000000     
 Grounding Line, (x,y)   553495.08333099994        8709595.2624299992     
 Grounding Line, (x,y)   553495.03596899996        8709595.4216300007     
 Grounding Line, (x,y)   553495.15959599998        8709595.3662899993     
 Grounding Line, (x,y)   553126.27579200000        8710055.0722000003     
 Grounding Line, (x,y)   553799.88937999995        8709231.2484700009     
 Grounding Line, (x,y)   553494.97750899999        8709595.3370800000     
 Grounding Line, (x,y)   553472.35202300001        8709637.5795000009     
 Grounding Line, (x,y)   553616.12485499994        8709348.3888399992     
 Grounding Line, (x,y)   553616.07361099997        8709348.5660599992     
 Grounding Line, (x,y)   553616.25967800000        8709348.3568799999     
 Grounding Line, (x,y)   552944.65882100002        8710154.7448600009     
 Grounding Line, (x,y)   552945.48949299997        8710156.7617099993     
 Grounding Line, (x,y)   552944.80642499996        8710154.4712199997     
 Grounding Line, (x,y)   553494.86775700003        8709595.7502400000     
 Grounding Line, (x,y)   553494.79971299996        8709595.5924800001     
 Grounding Line, (x,y)   553494.71985200001        8709595.6789900009     
 Grounding Line, (x,y)   553286.21026500000        8709951.4152000006     
 Grounding Line, (x,y)   553286.32313899999        8709951.4389800001     
 Grounding Line, (x,y)   553286.31691800000        8709951.3151699994     
 Grounding Line, (x,y)   553546.44542899996        8709480.0828699991     
 Grounding Line, (x,y)   553546.36022300005        8709480.0158500001     
 Grounding Line, (x,y)   553546.36294400005        8709480.1577000003     
 Grounding Line, (x,y)   553495.03139799996        8709595.7727300003     
 Grounding Line, (x,y)   553494.97055299999        8709595.6860600002     
 Grounding Line, (x,y)   553494.94174699998        8709595.8056400008     
 Grounding Line, (x,y)   552944.38573500002        8710155.0146800000     
 Grounding Line, (x,y)   553546.27574299998        8709480.0507800002     
 Grounding Line, (x,y)   553494.90162200003        8709595.6131299995     
 Grounding Line, (x,y)   553655.10184400005        8709320.4189100005     
 Grounding Line, (x,y)   553655.18848500005        8709320.3242000006     
 Grounding Line, (x,y)   553655.07169999997        8709320.3553599995     
 Grounding Line, (x,y)   553546.44069299998        8709480.2590100002     
 Grounding Line, (x,y)   553126.44262999995        8710055.0718499999     
 Grounding Line, (x,y)   553126.43225800002        8710054.9439400006     
 Grounding Line, (x,y)   552939.48354499997        8710156.4904399998     
 Grounding Line, (x,y)   552935.85526900005        8710158.6324400008     
 Grounding Line, (x,y)   552937.92363500001        8710166.9081599992     
 Grounding Line, (x,y)   553016.35307499999        8710113.0054599997     
 Grounding Line, (x,y)   553016.12644899997        8710114.4376299996     
 Grounding Line, (x,y)   553016.66303699999        8710112.9912899993     
 Grounding Line, (x,y)   553046.50475299999        8710092.4859100003     
 Grounding Line, (x,y)   553046.55852399999        8710092.4006999992     
 Grounding Line, (x,y)   553474.48048699996        8709638.8142499998     
 Grounding Line, (x,y)   553471.89295300003        8709639.8018699996     
 Grounding Line, (x,y)   553494.49765300006        8709596.5900999997     
 Grounding Line, (x,y)   553494.54613499995        8709596.9203399997     
 Grounding Line, (x,y)   553019.28816500003        8710115.3089300003     
 Grounding Line, (x,y)   553494.46362699999        8709596.4301900007     
 Grounding Line, (x,y)   553494.36349200003        8709596.3924000002     
 Grounding Line, (x,y)   553494.36744599999        8709596.5347499996     
 Grounding Line, (x,y)   552945.47187600005        8710153.2192199994     
 Grounding Line, (x,y)   552945.00356300001        8710154.1455099992     
 Grounding Line, (x,y)   553125.32280099997        8710055.6057200003     
 Grounding Line, (x,y)   553125.17941999994        8710055.5021299999     
 Grounding Line, (x,y)   553125.04074299999        8710055.6473600008     
 Grounding Line, (x,y)   553494.26825099997        8709596.4423699994     
 Grounding Line, (x,y)   552703.24245999998        8710240.9768400006     
 Grounding Line, (x,y)   552703.18528099998        8710241.1109100003     
 Grounding Line, (x,y)   552703.29321999999        8710241.1186400000     
 Grounding Line, (x,y)   553798.50423700002        8709229.9394400008     
 Grounding Line, (x,y)   553046.48872799997        8710092.3970100004     
 Grounding Line, (x,y)   552703.14983200002        8710241.0134699997     
 Grounding Line, (x,y)   553655.17385400005        8709320.4379500002     
 Grounding Line, (x,y)   552703.70071100001        8710241.1206999999     
 Grounding Line, (x,y)   552703.64637700003        8710241.2416699994     
 Grounding Line, (x,y)   552703.74429099995        8710241.2096500006     
 Grounding Line, (x,y)   553655.23050399998        8709320.6672300007     
 Grounding Line, (x,y)   553655.28193099995        8709320.7494399995     
 Grounding Line, (x,y)   553493.65758100001        8709597.2018100005     
 Grounding Line, (x,y)   553446.82021000003        8709780.1144600008     
 Grounding Line, (x,y)   553448.26185400004        8709780.4020499997     
 Grounding Line, (x,y)   553446.84843699995        8709780.0200100001     
 Grounding Line, (x,y)   553126.17478300002        8710055.0296299998     
 Grounding Line, (x,y)   553446.87666299997        8709779.9255599994     
 Grounding Line, (x,y)   553286.19497600000        8709951.3020600006     
 Grounding Line, (x,y)   553458.50110400002        8709742.9121499993     
 Grounding Line, (x,y)   553458.52743100002        8709743.0272100009     
 Grounding Line, (x,y)   553458.65593799995        8709742.9249499999     
 Grounding Line, (x,y)   553495.76939599996        8709595.4971099999     
 Grounding Line, (x,y)   552944.57555800001        8710154.0223099999     
 Grounding Line, (x,y)   552944.73814599996        8710154.0075499993     
 Grounding Line, (x,y)   552944.62044099998        8710153.8998499997     
 Grounding Line, (x,y)   553547.28437500005        8709478.6855200008     
 Grounding Line, (x,y)   553655.47851900000        8709321.1011399999     
 Grounding Line, (x,y)   552702.64535300003        8710241.3622900005     
 Grounding Line, (x,y)   552702.58280300000        8710241.4727400001     
 Grounding Line, (x,y)   552702.77334399999        8710241.4518500008     
 Grounding Line, (x,y)   553044.45840700006        8710093.1479000002     
 Grounding Line, (x,y)   552779.53544899996        8710211.1965399999     
 Grounding Line, (x,y)   552779.41713500000        8710211.1819899995     
 Grounding Line, (x,y)   552779.48884500004        8710211.2967200000     
 Grounding Line, (x,y)   552774.27670599998        8710212.8841999993     
 Grounding Line, (x,y)   552770.29153900000        8710214.4602600001     
 Grounding Line, (x,y)   552770.63099800004        8710225.3697299995     
 Grounding Line, (x,y)   553546.76879999996        8709479.4538300000     
 Grounding Line, (x,y)   553546.82651200006        8709479.5367200002     
 Grounding Line, (x,y)   553472.04916800000        8709637.7500800006     
 Grounding Line, (x,y)   553472.00992300001        8709637.8357699998     
 Grounding Line, (x,y)   553472.15435400000        8709637.8001799993     
 Grounding Line, (x,y)   553655.27933900000        8709320.5775700007     
 Grounding Line, (x,y)   553178.08131000004        8710043.7065800000     
 Grounding Line, (x,y)   553185.77833600005        8710039.8947199993     
 Grounding Line, (x,y)   552779.34664500004        8710211.3101799991     
 Grounding Line, (x,y)   553456.59504699998        8709747.4063600004     
 Grounding Line, (x,y)   553455.45961699996        8709751.2056799997     
 Grounding Line, (x,y)   553462.37303000002        8709755.0577399991     
 Grounding Line, (x,y)   553472.05961300002        8709637.9164600000     
 Grounding Line, (x,y)   553494.51588700002        8709596.1628200002     
 Grounding Line, (x,y)   553494.54382400005        8709596.0658899993     
 Grounding Line, (x,y)   553494.43424099998        8709596.1314800009     
 Grounding Line, (x,y)   553617.07456700003        8709346.9913400002     
 Grounding Line, (x,y)   553616.99349899997        8709347.0483599994     
 Grounding Line, (x,y)   553617.11048200005        8709347.1215000004     
 Grounding Line, (x,y)   553472.16755500005        8709637.9181399997     
 Grounding Line, (x,y)   553655.64683700004        8709320.2746399995     
 Grounding Line, (x,y)   553655.68018699996        8709320.1309200004     
 Grounding Line, (x,y)   553655.54658800003        8709320.2102099992     
 Grounding Line, (x,y)   553494.41986599995        8709595.9170800000     
 Grounding Line, (x,y)   553494.28381399997        8709595.9252599999     
 Grounding Line, (x,y)   553494.36445899995        8709596.0153100006     
 Grounding Line, (x,y)   553494.69240399997        8709595.8413100000     
 Grounding Line, (x,y)   553494.56838199997        8709595.8825899996     
 Grounding Line, (x,y)   553494.64330400003        8709595.9307199996     
 Grounding Line, (x,y)   553286.78431699995        8709951.6331200004     
 Grounding Line, (x,y)   553592.24602500000        8709386.3316399995     
 Grounding Line, (x,y)   553592.29347200005        8709386.4126500003     
 Grounding Line, (x,y)   553592.31858199998        8709386.2954900004     
 Grounding Line, (x,y)   553546.52667900000        8709479.8753399998     
 Grounding Line, (x,y)   553617.14832499996        8709347.0334699992     
 Grounding Line, (x,y)   553616.62094399997        8709347.4876199998     
 Grounding Line, (x,y)   553616.69167800003        8709347.6008000001     
 Grounding Line, (x,y)   553616.73325499997        8709347.5175700001     
 Grounding Line, (x,y)   553014.35281900002        8710122.6241500005     
 Grounding Line, (x,y)   553013.03815699997        8710114.8121300004     
 Grounding Line, (x,y)   552702.89759700000        8710241.4181999993     
 Grounding Line, (x,y)   552702.77816700004        8710241.3486499991     
 Grounding Line, (x,y)   552779.90056900005        8710211.1429299992     
 Grounding Line, (x,y)   552780.12465300004        8710211.2464300003     
 Grounding Line, (x,y)   552779.97198399995        8710211.0423499998     
 Grounding Line, (x,y)   553009.98232099996        8710117.2131399997     
 Grounding Line, (x,y)   553338.86144300003        8709888.0405800007     
 Grounding Line, (x,y)   553338.96453999996        8709888.0206199996     
 Grounding Line, (x,y)   553338.82970400003        8709887.9398599993     
 Grounding Line, (x,y)   552702.83303200000        8710241.6512000002     
 Grounding Line, (x,y)   552702.70581099996        8710241.6645800006     
 Grounding Line, (x,y)   552702.75895000005        8710241.7404599991     
 Grounding Line, (x,y)   553046.33637399995        8710092.3214599993     
 Grounding Line, (x,y)   553046.30418099998        8710092.2346000001     
 Grounding Line, (x,y)   553046.17906100000        8710092.3339900002     
 Grounding Line, (x,y)   553472.16962299997        8709637.4586900007     
 Grounding Line, (x,y)   553655.71710100002        8709320.7284200005     
 Grounding Line, (x,y)   553655.69494299998        8709320.6484699994     
 Grounding Line, (x,y)   553655.65419300005        8709320.7498400006     
 Grounding Line, (x,y)   553494.24006500002        8709596.0144400001     
 Grounding Line, (x,y)   553620.09192899999        8709351.0647400003     
 Grounding Line, (x,y)   553494.65012100001        8709595.7736600004     
 Grounding Line, (x,y)   553548.05800299998        8709479.9720799997     
 Grounding Line, (x,y)   553338.22960600001        8709888.6587700006     
 Grounding Line, (x,y)   553338.34447699995        8709888.6233500000     
 Grounding Line, (x,y)   553338.21245600004        8709888.5554399993     
 Grounding Line, (x,y)   552944.46947899996        8710154.1093799993     
 Grounding Line, (x,y)   552944.45615200000        8710153.9920300003     
 Grounding Line, (x,y)   552702.89510700002        8710241.4857100006     
 Grounding Line, (x,y)   553494.58131200005        8709596.4743799996     
 Grounding Line, (x,y)   553494.60999899998        8709596.3913300000     
 Grounding Line, (x,y)   553458.55172999995        8709742.8382600006     
 Grounding Line, (x,y)   553286.55670700001        8709951.0171099994     
 Grounding Line, (x,y)   553286.63227599999        8709951.1248599999     
 Grounding Line, (x,y)   553286.65836700005        8709950.9855899997     
 Grounding Line, (x,y)   553016.92087699997        8710112.2362300009     
 Grounding Line, (x,y)   553016.97527399997        8710112.3313299995     
 Grounding Line, (x,y)   553017.02764800005        8710112.2289799992     
 Grounding Line, (x,y)   553472.15026000002        8709637.6865299996     
 Grounding Line, (x,y)   553472.07624600001        8709637.6415500008     
 Grounding Line, (x,y)   553875.27414200001        8709163.7340200003     
 Grounding Line, (x,y)   553872.63328800001        8709166.8309000004     
 Grounding Line, (x,y)   553876.34847700002        8709175.3395300005     
 Grounding Line, (x,y)   553616.24761399999        8709347.9863000009     
 Grounding Line, (x,y)   553616.12105099997        8709348.0026799999     
 Grounding Line, (x,y)   553616.16612299997        8709348.0948300008     
 Grounding Line, (x,y)   552944.65058300004        8710154.0973600000     
 Grounding Line, (x,y)   553616.98880100006        8709347.1530699991     
 Grounding Line, (x,y)   553458.30151200003        8709743.1159499995     
 Grounding Line, (x,y)   553458.39111400000        8709743.2367599998     
 Grounding Line, (x,y)   553458.40245900000        8709743.0821000002     
 Grounding Line, (x,y)   553017.06712400005        8710112.3200700004     
 Grounding Line, (x,y)   553496.37109100004        8709594.3816000000     
 Grounding Line, (x,y)   553338.64519600000        8709888.6986999996     
 Grounding Line, (x,y)   553338.72320400004        8709888.8069000002     
 Grounding Line, (x,y)   553338.76250900002        8709888.6862300001     
 Grounding Line, (x,y)   552703.34583899996        8710241.0284000002     
 Grounding Line, (x,y)   553494.59678799997        8709596.1468300000     
 Grounding Line, (x,y)   553458.50088499999        8709743.1765899993     
 Grounding Line, (x,y)   553655.23170000000        8709320.3965600003     
 Grounding Line, (x,y)   553494.49116300000        8709595.9826599993     
 Grounding Line, (x,y)   553494.73751000001        8709596.4657899998     
 Grounding Line, (x,y)   553494.77028599998        8709596.3954099994     
 Grounding Line, (x,y)   553494.68408100004        8709596.3709299993     
 Grounding Line, (x,y)   553806.32342699997        8709226.9358399995     
 Grounding Line, (x,y)   553819.31902699999        8709232.2528900001     
 Grounding Line, (x,y)   553813.33700499998        8709224.3308000006     
 Grounding Line, (x,y)   552779.97282499995        8710211.7261900008     
 Grounding Line, (x,y)   552780.63022799999        8710211.5763600003     
 Grounding Line, (x,y)   552780.06309700001        8710211.4308199994     
 Grounding Line, (x,y)   553046.84029099997        8710091.9816100001     
 Grounding Line, (x,y)   553046.75620499998        8710091.9433100000     
 Grounding Line, (x,y)   553046.72372300003        8710092.0499000009     
 Grounding Line, (x,y)   553546.72659400001        8709479.3516499996     
 Grounding Line, (x,y)   553546.82598199998        8709479.3200800009     
 Grounding Line, (x,y)   553045.61648600001        8710092.9196099993     
 Grounding Line, (x,y)   553045.63738199999        8710092.8178899996     
 Grounding Line, (x,y)   553045.54908400006        8710092.8251300007     
 Grounding Line, (x,y)   553045.50089200004        8710092.8801399991     
 Grounding Line, (x,y)   553285.79217100004        8709952.2424500007     
 Grounding Line, (x,y)   553495.36806100002        8709595.6025300007     
 Grounding Line, (x,y)   553495.30920599995        8709595.4900100008     
 Grounding Line, (x,y)   553799.03343900002        8709229.7556599993     
 Grounding Line, (x,y)   553799.02943200001        8709229.8731200006     
 Grounding Line, (x,y)   553494.53909800004        8709596.3282399997     
 Grounding Line, (x,y)   553285.90556900005        8709951.4097600002     
 Grounding Line, (x,y)   553285.93847199995        8709951.5339400005     
 Grounding Line, (x,y)   553285.99313099997        8709951.4423699994     
 Grounding Line, (x,y)   553657.57149000000        8709324.9443900008     
 Grounding Line, (x,y)   553285.83442400000        8709951.4789199997     
 Grounding Line, (x,y)   553799.18430700002        8709229.7402199991     
 Grounding Line, (x,y)   553546.93186000001        8709478.9809200000     
 Grounding Line, (x,y)   553546.79480799998        8709479.0565600004     
 Grounding Line, (x,y)   553546.92149300000        8709479.0850000009     
 Grounding Line, (x,y)   553616.28608100000        8709348.4338300005     
 Grounding Line, (x,y)   553373.91921299999        8709858.2590699997     
 Grounding Line, (x,y)   553383.40984700003        8709859.9758899994     
 Grounding Line, (x,y)   553377.16198600002        8709855.8033799995     
 Grounding Line, (x,y)   553655.61463299999        8709320.6561299991     
 Grounding Line, (x,y)   553471.99576900003        8709640.7957499996     
 Grounding Line, (x,y)   553473.09259100002        8709635.7056699991     
 Grounding Line, (x,y)   553472.59431099996        8709636.5545899998     
 Grounding Line, (x,y)   552948.32210800005        8710151.9936200008     
 Grounding Line, (x,y)   552957.38487800001        8710155.9072299991     
 Grounding Line, (x,y)   552952.03260699997        8710150.3980999999     
 Grounding Line, (x,y)   553286.04680899996        8709950.9742600005     
 Grounding Line, (x,y)   553285.95456400001        8709950.8640299998     
 Grounding Line, (x,y)   553285.96026500000        8709951.0114500001     
 Grounding Line, (x,y)   553616.39618599997        8709348.4795399997     
 Grounding Line, (x,y)   553127.64439499995        8710059.9230300002     
 Grounding Line, (x,y)   553125.27495400002        8710055.2685199995     
 Grounding Line, (x,y)   553125.18928299996        8710055.2397900000     
 Grounding Line, (x,y)   553125.19918800006        8710055.3527899999     
 Grounding Line, (x,y)   553337.19770100003        8709890.7947000004     
 Grounding Line, (x,y)   553338.30386099999        8709889.5634700004     
 Grounding Line, (x,y)   553338.61549899995        8709888.7863200009     
 Grounding Line, (x,y)   553125.84767699998        8710055.2978600003     
 Grounding Line, (x,y)   553125.87157399999        8710055.3968499992     
 Grounding Line, (x,y)   553125.97700299998        8710055.3630400002     
 Grounding Line, (x,y)   553338.31392700004        8709888.7443000004     
 Grounding Line, (x,y)   553286.76160500001        8709951.0708799995     
 Grounding Line, (x,y)   553655.80076599994        8709320.1902200002     
 Grounding Line, (x,y)   553655.89647100004        8709320.1512300000     
 Grounding Line, (x,y)   553655.78448699997        8709320.0573600009     
 Grounding Line, (x,y)   553472.13363599998        8709638.5629999992     
 Grounding Line, (x,y)   553472.01718800003        8709638.6129700001     
 Grounding Line, (x,y)   553472.13255600003        8709638.6859600004     
 Grounding Line, (x,y)   553016.49086200004        8710112.4971699994     
 Grounding Line, (x,y)   553016.62691200001        8710112.4542599991     
 Grounding Line, (x,y)   553016.49630400003        8710112.3871800005     
 Grounding Line, (x,y)   553798.26974000002        8709230.7662000004     
 Grounding Line, (x,y)   553798.43258400005        8709230.7789299991     
 Grounding Line, (x,y)   553798.36955199996        8709230.6818499994     
 Grounding Line, (x,y)   553616.62876500003        8709348.0254999995     
 Grounding Line, (x,y)   553125.29015999998        8710055.3540800009     
 Grounding Line, (x,y)   553798.94462800003        8709230.0504700001     
 Grounding Line, (x,y)   553798.97192699998        8709230.1834800001     
 Grounding Line, (x,y)   553799.03871500003        8709230.0553200003     
 Grounding Line, (x,y)   553338.30523299996        8709888.8400899991     
 Grounding Line, (x,y)   553338.36952900002        8709888.8324100003     
 Grounding Line, (x,y)   553472.23524199997        8709638.6072199997     
 Grounding Line, (x,y)   552703.81392800005        8710241.1364300009     
 Grounding Line, (x,y)   553046.28151700005        8710092.3909399994     
 Grounding Line, (x,y)   552702.87450399995        8710241.9256400000     
 Grounding Line, (x,y)   552702.90525299998        8710241.8386599999     
 Grounding Line, (x,y)   552702.75996199995        8710241.8965099994     
 Grounding Line, (x,y)   553494.97661600006        8709595.5503800008     
 Grounding Line, (x,y)   553495.10543600004        8709595.5252199993     
 Grounding Line, (x,y)   553655.54868200002        8709320.7315699998     
 Grounding Line, (x,y)   552702.79392700002        8710241.8075900003     
 Grounding Line, (x,y)   553125.67045900004        8710055.1014399994     
 Grounding Line, (x,y)   553125.77503799996        8710055.1304299999     
 Grounding Line, (x,y)   553125.73325299995        8710055.0147699993     
 Grounding Line, (x,y)   553656.26624899998        8709320.2079700008     
 Grounding Line, (x,y)   553656.40174600005        8709320.2112099994     
 Grounding Line, (x,y)   553656.26500100002        8709320.1396900006     
 Grounding Line, (x,y)   553458.10629899998        8709743.3659700006     
 Grounding Line, (x,y)   553458.21359800000        8709743.3384199999     
 Grounding Line, (x,y)   553458.11010900000        8709743.2886900008     
 Grounding Line, (x,y)   553592.38519099995        8709386.3514099997     
 Grounding Line, (x,y)   553592.37047600001        8709386.4739800002     
 Grounding Line, (x,y)   553616.54532899999        8709348.0216199998     
 Grounding Line, (x,y)   552779.88097199996        8710211.4108499996     
 Grounding Line, (x,y)   552779.90843499999        8710211.2800299991     
 Grounding Line, (x,y)   552779.80595900002        8710211.2875999995     
 Grounding Line, (x,y)   552702.83445700002        8710241.5487900004     
 Grounding Line, (x,y)   552703.75697999995        8710240.8755600005     
 Grounding Line, (x,y)   552703.72494300001        8710240.9969699997     
 Grounding Line, (x,y)   552703.83909400005        8710240.9451700002     
 Grounding Line, (x,y)   553458.15890499996        8709743.2342099994     
 Grounding Line, (x,y)   553655.03754199995        8709320.5358099993     
 Grounding Line, (x,y)   553654.94459199999        8709320.5542600006     
 Grounding Line, (x,y)   553655.04627199995        8709320.6380300000     
 Grounding Line, (x,y)   553125.10536100005        8710055.2951699998     
 Grounding Line, (x,y)   553616.69350000005        8709348.3536099996     
 Grounding Line, (x,y)   553617.90082600003        8709348.9749999996     
 Grounding Line, (x,y)   553045.74466400000        8710092.6963199992     
 Grounding Line, (x,y)   553045.81117999996        8710092.8287400007     
 Grounding Line, (x,y)   553045.85849100002        8710092.7240699995     
 Grounding Line, (x,y)   552719.65634400002        8710234.4854700007     
 Grounding Line, (x,y)   552726.11849999998        8710231.9298199993     
 Grounding Line, (x,y)   553472.02946500003        8709638.7099600006     
 Grounding Line, (x,y)   552702.53065700002        8710241.3995299991     
 Grounding Line, (x,y)   553045.71225999994        8710092.7926800009     
 Grounding Line, (x,y)   553286.15730500000        8709951.1905600000     
 Grounding Line, (x,y)   553286.10795099998        8709951.3029500004     
 Grounding Line, (x,y)   553494.72794000001        8709595.9222400002     
 Grounding Line, (x,y)   553494.77360099996        8709596.0188200008     
 Grounding Line, (x,y)   553494.82809400000        8709595.9072099999     
 Grounding Line, (x,y)   553045.82293300005        8710092.6356199998     
 Grounding Line, (x,y)   553045.74206800002        8710092.5684099998     
 Grounding Line, (x,y)   553616.84294899995        8709347.9639199991     
 Grounding Line, (x,y)   552779.28962800000        8710211.4670400005     
 Grounding Line, (x,y)   552779.24908600003        8710211.3516799994     
 Grounding Line, (x,y)   553286.04460999998        8709951.2526699994     
 Grounding Line, (x,y)   552703.01307300001        8710241.3847499993     
 Grounding Line, (x,y)   552702.99190499994        8710241.5103300009     
 Grounding Line, (x,y)   552703.08972100005        8710241.4779800009     
 Grounding Line, (x,y)   552943.01411400002        8710155.0884499997     
 Grounding Line, (x,y)   553616.36067099997        8709347.8546999991     
 Grounding Line, (x,y)   553616.22690500005        8709347.8579099998     
 Grounding Line, (x,y)   553286.07799899997        8709950.8827299997     
 Grounding Line, (x,y)   553338.76884499996        8709887.8154799994     
 Grounding Line, (x,y)   553338.69308700005        8709887.8799799997     
 Grounding Line, (x,y)   553045.65595499997        8710092.6286699995     
 Grounding Line, (x,y)   553338.43161199999        8709888.8073399998     
 Grounding Line, (x,y)   552703.80762600002        8710241.0367699992     
 Grounding Line, (x,y)   553495.40554900002        8709595.4347600006     
 Grounding Line, (x,y)   553285.76520799997        8709951.7332199998     
 Grounding Line, (x,y)   553338.73014600005        8709887.9793999996     
 Grounding Line, (x,y)   553125.70174900000        8710055.1893799994     
 Grounding Line, (x,y)   553458.91404800001        8709742.9792599995     
 Grounding Line, (x,y)   553458.82783600001        8709742.8778600004     
 Grounding Line, (x,y)   553458.82173900004        8709742.9714700002     
 Grounding Line, (x,y)   553016.55336799996        8710112.0501700006     
 Grounding Line, (x,y)   553016.58136099996        8710112.1831100006     
 Grounding Line, (x,y)   553016.66906300001        8710112.1400400009     
 Grounding Line, (x,y)   553495.29962099995        8709595.2989799995     
 Grounding Line, (x,y)   553495.15873100003        8709595.2825399991     
 Grounding Line, (x,y)   552943.44693300000        8710154.6283899993     
 Grounding Line, (x,y)   552943.38237899996        8710154.5610399991     
 Grounding Line, (x,y)   553616.52026500006        8709347.8069100007     
 Grounding Line, (x,y)   553798.77115900000        8709230.6323899999     
 Grounding Line, (x,y)   553798.85925800004        8709230.5728200004     
 Grounding Line, (x,y)   553798.70978699997        8709230.5379700009     
 Grounding Line, (x,y)   552702.87439200003        8710241.2905199993     
 Grounding Line, (x,y)   552703.01128099998        8710241.2642499991     
 Grounding Line, (x,y)   552703.12070700002        8710241.3399800006     
 Grounding Line, (x,y)   553497.64092999999        8709593.5934299994     
 Grounding Line, (x,y)   553507.15526599996        8709596.3527199998     
 Grounding Line, (x,y)   553500.14042099996        8709592.0420200005     
 Grounding Line, (x,y)   553546.47907200002        8709479.6040000003     
 Grounding Line, (x,y)   553546.34663799999        8709479.5576000009     
 Grounding Line, (x,y)   553546.43067300005        8709479.6703999992     
 Grounding Line, (x,y)   553616.69112800003        8709347.4367500003     
 Grounding Line, (x,y)   554831.25194500003        8712900.1021299995     
 Grounding Line, (x,y)   554845.55616499996        8712884.0132800005     
 Grounding Line, (x,y)   554821.03174400004        8712887.0053599998     
 Grounding Line, (x,y)   553803.72270699998        8709236.3975200001     
 Grounding Line, (x,y)   554249.83711399999        8710856.9113699999     
 Grounding Line, (x,y)   554260.28381299996        8710844.9195600003     
 Grounding Line, (x,y)   554232.34786099999        8710843.9752399996     
 Grounding Line, (x,y)   553286.87231799995        8709951.2193100005     
 Grounding Line, (x,y)   553616.74121000001        8709347.6945600007     
 Grounding Line, (x,y)   553616.64737400005        8709347.6759500001     
 Grounding Line, (x,y)   552703.65943300002        8710241.4212100003     
 Grounding Line, (x,y)   552703.58396500000        8710241.4290500004     
 Grounding Line, (x,y)   552779.08758499997        8710211.1208900008     
 Grounding Line, (x,y)   552779.16231000004        8710211.1230200008     
 Grounding Line, (x,y)   552779.11731000000        8710210.9837800004     
 Grounding Line, (x,y)   553654.95203799999        8709320.6622800007     
 Grounding Line, (x,y)   553494.87953000003        8709595.9770500008     
 Grounding Line, (x,y)   553617.24933499994        8709346.8684299998     
 Grounding Line, (x,y)   553617.15563499997        8709346.9343299996     
 Grounding Line, (x,y)   553617.25281800004        8709347.0693699997     
 Grounding Line, (x,y)   553126.36880699999        8710054.8157700002     
 Grounding Line, (x,y)   553126.16500200005        8710055.1922699995     
 Grounding Line, (x,y)   553126.21183000004        8710055.1206000000     
 Grounding Line, (x,y)   553126.08160100004        8710055.0795799997     
 Grounding Line, (x,y)   553458.37929499999        8709742.5542300008     
 Grounding Line, (x,y)   553458.38779399998        8709742.4271499999     
 Grounding Line, (x,y)   553458.31535900000        8709742.4930900000     
 Grounding Line, (x,y)   553656.34766099998        8709320.0676399991     
 Grounding Line, (x,y)   553458.48489099997        8709742.4835899994     
 Grounding Line, (x,y)   552703.56425099995        8710241.1663700007     
 Grounding Line, (x,y)   552703.44840100000        8710241.2460200004     
 Grounding Line, (x,y)   552703.54725499998        8710241.3136700001     
 Grounding Line, (x,y)   553885.93979099998        8709538.5695500001     
 Grounding Line, (x,y)   553863.91672300000        8709522.3188799992     
 Grounding Line, (x,y)   553870.52123499999        8709543.4142499994     
 Grounding Line, (x,y)   553798.79641199997        8709230.4765300006     
 Grounding Line, (x,y)   553546.67201200000        8709479.4197400007     
 Grounding Line, (x,y)   553338.11465200002        8709888.7495200001     
 Grounding Line, (x,y)   553338.18772799999        8709888.7416999992     
 Grounding Line, (x,y)   553338.08944100002        8709888.6290499996     
 Grounding Line, (x,y)   553339.71532900003        8709889.2299099993     
 Grounding Line, (x,y)   554902.15954899997        8712174.7012099996     
 Grounding Line, (x,y)   554910.10165900004        8712155.0257399995     
 Grounding Line, (x,y)   554890.12752900005        8712160.7393599991     
 Grounding Line, (x,y)   553471.94016999996        8709637.9425700009     
 Grounding Line, (x,y)   553471.81149500003        8709637.8882800005     
 Grounding Line, (x,y)   553471.84024599998        8709638.0325700007     
 Grounding Line, (x,y)   555137.13720799994        8710435.1026799995     
 Grounding Line, (x,y)   555122.26610899996        8710439.5606800001     
 Grounding Line, (x,y)   555134.68494700000        8710461.0849900004     
 Grounding Line, (x,y)   552779.52847699996        8710211.0909400005     
 Grounding Line, (x,y)   552779.40666199999        8710211.0656899996     
 Grounding Line, (x,y)   553472.04758500005        8709638.2658099998     
 Grounding Line, (x,y)   553472.03510400001        8709638.3691900000     
 Grounding Line, (x,y)   553472.12599700002        8709638.3114400003     
 Grounding Line, (x,y)   555136.54858199996        8709860.8256899994     
 Grounding Line, (x,y)   555136.68632500002        8709845.6774000004     
 Grounding Line, (x,y)   555115.98538600001        8709853.7585400008     
 Grounding Line, (x,y)   553472.06291099999        8709638.7820699997     
 Grounding Line, (x,y)   553495.13836400001        8709595.9955800008     
 Grounding Line, (x,y)   553495.25346699997        8709596.0310500003     
 Grounding Line, (x,y)   553495.16841100005        8709595.9090000000     
 Grounding Line, (x,y)   552710.44778299995        8710631.3406799994     
 Grounding Line, (x,y)   552714.15038500004        8710649.0700000003     
 Grounding Line, (x,y)   552733.44260700000        8710635.6970600002     
 Grounding Line, (x,y)   554273.91690900002        8710333.7548600007     
 Grounding Line, (x,y)   554258.44874699996        8710336.0782900006     
 Grounding Line, (x,y)   554278.23085299996        8710352.4244599994     
 Grounding Line, (x,y)   553471.77300100005        8709638.6423300002     
 Grounding Line, (x,y)   553471.92448599997        8709638.6582399998     
 Grounding Line, (x,y)   553471.89665200002        8709638.5966899991     
 Grounding Line, (x,y)   552703.49346200004        8710240.9931499995     
 Grounding Line, (x,y)   552703.57801599998        8710240.9209800009     
 Grounding Line, (x,y)   552703.42771600001        8710240.9035800006     
 Grounding Line, (x,y)   553458.06766099995        8709742.8945199996     
 Grounding Line, (x,y)   553458.15661700000        8709742.8615400009     
 Grounding Line, (x,y)   553458.09214099997        8709742.7780000009     
 Grounding Line, (x,y)   552944.53220400005        8710153.9396800008     
 Grounding Line, (x,y)   553125.82983599999        8710055.0463500004     
 Grounding Line, (x,y)   552943.03790600004        8710154.6072199997     
 Grounding Line, (x,y)   552942.96944100002        8710154.4325099997     
 Grounding Line, (x,y)   552942.86960400001        8710154.4914500006     
 Grounding Line, (x,y)   553194.55377600004        8712478.2228999995     
 Grounding Line, (x,y)   553211.22384899994        8712466.5468199998     
 Grounding Line, (x,y)   553185.27722199995        8712465.0900199991     
 Grounding Line, (x,y)   553546.66452400002        8709479.5070600007     
 Grounding Line, (x,y)   553471.86577300006        8709638.7268599998     
 Grounding Line, (x,y)   553798.81599799998        8709229.9741200004     
 Grounding Line, (x,y)   553798.89873500005        8709229.9347099997     
 Grounding Line, (x,y)   553798.84941899998        8709229.8802899998     
 Grounding Line, (x,y)   554195.99401599995        8709826.4663100000     
 Grounding Line, (x,y)   554185.87604999996        8709806.0337000005     
 Grounding Line, (x,y)   554179.50415399997        8709828.7237899993     
 Grounding Line, (x,y)   553495.27550500003        8709595.9194900002     
 Grounding Line, (x,y)   554121.63765599998        8710969.3382799998     
 Grounding Line, (x,y)   554108.22037000000        8710974.4618200008     
 Grounding Line, (x,y)   554115.82119900000        8710990.2743699998     
 Grounding Line, (x,y)   554609.66691699997        8709922.1550799999     
 Grounding Line, (x,y)   554633.70568599994        8709911.2879200000     
 Grounding Line, (x,y)   554615.52960899996        8709904.0192399994     
 Grounding Line, (x,y)   553458.18750600005        8709742.7978700008     
 Grounding Line, (x,y)   553472.60318400001        8709637.9149200004     
 Grounding Line, (x,y)   553472.55488099996        8709638.0238400009     
 Grounding Line, (x,y)   554256.42983499996        8710351.7655500006     
 Grounding Line, (x,y)   553457.91007400001        8709743.3357900009     
 Grounding Line, (x,y)   553457.99973200005        8709743.3932700008     
 Grounding Line, (x,y)   553458.01918299997        8709743.2982299998     
 Grounding Line, (x,y)   553338.89213499997        8709888.8412500005     
 Grounding Line, (x,y)   553338.99771599995        8709888.7879099995     
 Grounding Line, (x,y)   553338.91303000005        8709888.7652000003     
 Grounding Line, (x,y)   553616.43935600005        8709347.7439799998     
 Grounding Line, (x,y)   553616.33889400004        8709347.7479599994     
 Grounding Line, (x,y)   553457.81219299999        8709743.5739300009     
 Grounding Line, (x,y)   553457.84348299995        8709743.6710400004     
 Grounding Line, (x,y)   553457.90836400003        8709743.5477200001     
 Grounding Line, (x,y)   553337.93071300001        8709889.2120999992     
 Grounding Line, (x,y)   553338.02420400002        8709889.1575300004     
 Grounding Line, (x,y)   553337.90307200002        8709889.0816600006     
 Grounding Line, (x,y)   554054.07423799997        8712655.9198599998     
 Grounding Line, (x,y)   554058.65834800003        8712670.0442100000     
 Grounding Line, (x,y)   554075.31211900001        8712662.7923700009     
 Grounding Line, (x,y)   555020.71663000004        8712180.5991799999     
 Grounding Line, (x,y)   555035.96759699995        8712181.6361900009     
 Grounding Line, (x,y)   555037.48986600002        8712162.9345900007     
 Grounding Line, (x,y)   552770.79154899996        8710274.3192599993     
 Grounding Line, (x,y)   552756.45507799997        8710267.2315699998     
 Grounding Line, (x,y)   552757.50885999994        8710289.4475999996     
 Grounding Line, (x,y)   553016.59416600002        8710112.3682700004     
 Grounding Line, (x,y)   552702.52709300001        8710241.3261200003     
 Grounding Line, (x,y)   553610.10251300002        8709463.3269599993     
 Grounding Line, (x,y)   553618.46421400004        8709474.9792500008     
 Grounding Line, (x,y)   553628.09113199997        8709450.7026600000     
 Grounding Line, (x,y)   554252.17952899996        8710828.2773499992     
 Grounding Line, (x,y)   553632.18276100000        8709470.4484199993     
 Grounding Line, (x,y)   553733.46862499998        8710314.5411699992     
 Grounding Line, (x,y)   553725.62036099995        8710300.6102799997     
 Grounding Line, (x,y)   553714.20185399998        8710316.9658300001     
 Grounding Line, (x,y)   554689.46819799999        8709550.9134899992     
 Grounding Line, (x,y)   554702.43294099998        8709563.7311400007     
 Grounding Line, (x,y)   554703.71504299995        8709542.7584899999     
 Grounding Line, (x,y)   553798.77077199996        8709229.8873100001     
 Grounding Line, (x,y)   554944.66204299999        8711132.5285999998     
 Grounding Line, (x,y)   554917.19605200004        8711133.9695900008     
 Grounding Line, (x,y)   554937.11746099999        8711145.4390200004     
 Grounding Line, (x,y)   554066.24835699995        8712644.5422099996     
 Grounding Line, (x,y)   555126.38667799998        8709872.0591800008     
 Grounding Line, (x,y)   553547.13633600005        8709478.9010899998     
 Grounding Line, (x,y)   553547.15295200003        8709478.8385899998     
 Grounding Line, (x,y)   553592.42268199997        8709386.2334400006     
 Grounding Line, (x,y)   552778.78961600002        8710211.4499600008     
 Grounding Line, (x,y)   552778.72804800002        8710211.3327300008     
 Grounding Line, (x,y)   552778.67349399999        8710211.4501300007     
 Grounding Line, (x,y)   553293.15955999994        8710277.7349200007     
 Grounding Line, (x,y)   553268.82084499998        8710273.1474200003     
 Grounding Line, (x,y)   553279.97497500002        8710290.5394899994     
 Grounding Line, (x,y)   555021.29506599996        8711074.7785800006     
 Grounding Line, (x,y)   555013.42812499998        8711060.3914400004     
 Grounding Line, (x,y)   555005.09001699998        8711077.5576000009     
 Grounding Line, (x,y)   552729.68591899995        8710651.2371599991     
 Grounding Line, (x,y)   554807.50612399995        8708853.8755799998     
 Grounding Line, (x,y)   554791.75121000002        8708848.3612900004     
 Grounding Line, (x,y)   554785.57078600000        8708864.9116799999     
 Grounding Line, (x,y)   553798.87516199995        8709230.0049600005     
 Grounding Line, (x,y)   553616.86046500003        8709347.4184099995     
 Grounding Line, (x,y)   553616.83077600005        8709347.4963600002     
 Grounding Line, (x,y)   553616.93253700004        8709347.4796099998     
 Grounding Line, (x,y)   553592.34227400005        8709386.1996999998     
 Grounding Line, (x,y)   553472.14622300002        8709638.7973400000     
 Grounding Line, (x,y)   553592.45337100001        8709386.4095500000     
 Grounding Line, (x,y)   553592.55888000003        8709386.3573800009     
 Grounding Line, (x,y)   554635.59685400000        8710610.8552199993     
 Grounding Line, (x,y)   554624.00885300001        8710598.2071899995     
 Grounding Line, (x,y)   554615.65685999999        8710620.9282200001     
 Grounding Line, (x,y)   553591.59443399997        8709388.4109700006     
 Grounding Line, (x,y)   553597.74816299998        8709388.1296800002     
 Grounding Line, (x,y)   553594.73943500000        8709386.7621100005     
 Grounding Line, (x,y)   552907.85228500003        8711469.6267099995     
 Grounding Line, (x,y)   552891.25932600000        8711470.0606800001     
 Grounding Line, (x,y)   552901.76466099999        8711491.7730599996     
 Grounding Line, (x,y)   553401.24501900002        8711084.7544500008     
 Grounding Line, (x,y)   553416.48392499995        8711078.4966599997     
 Grounding Line, (x,y)   553408.45024300006        8711058.8485700004     
 Grounding Line, (x,y)   553391.35549999995        8711071.5934200007     
 Grounding Line, (x,y)   553457.99271699996        8709743.1467000004     
 Grounding Line, (x,y)   553457.89412099996        8709743.0594599992     
 Grounding Line, (x,y)   553457.86589400005        8709743.1539099999     
 Grounding Line, (x,y)   555208.57136499998        8711671.1932599992     
 Grounding Line, (x,y)   555192.71722700004        8711667.4738999996     
 Grounding Line, (x,y)   555202.34597300005        8711693.1158900000     
 Grounding Line, (x,y)   555185.67409500002        8711682.1566899996     
 Grounding Line, (x,y)   553472.10906599998        8709637.5373599995     
 Grounding Line, (x,y)   553472.05910600000        8709637.4664200004     
 Grounding Line, (x,y)   553710.36861400004        8710294.6323099993     
 Grounding Line, (x,y)   553593.79515200004        8709383.3425600007     
 Grounding Line, (x,y)   553338.00363199995        8709889.0488900002     
 Grounding Line, (x,y)   554731.79443699995        8709997.5034500007     
 Grounding Line, (x,y)   554722.07294500002        8710011.3182500005     
 Grounding Line, (x,y)   554743.21059799998        8710011.1045600008     
 Grounding Line, (x,y)   553194.97282400005        8712454.4963300005     
 Grounding Line, (x,y)   553617.00991899997        8709347.4216699991     
 Grounding Line, (x,y)   553617.00104600005        8709347.5577700008     
 Grounding Line, (x,y)   554826.83551000000        8712872.2412199993     
 Grounding Line, (x,y)   554169.35582000006        8709754.7528799996     
 Grounding Line, (x,y)   554155.03736399999        8709776.7888799999     
 Grounding Line, (x,y)   554174.46723199997        8709772.7891600002     
 Grounding Line, (x,y)   552703.11259999999        8710241.2092000004     
 Grounding Line, (x,y)   553370.82272099995        8709862.2650400009     
 Grounding Line, (x,y)   553370.07645900000        8709861.1691200007     
 Grounding Line, (x,y)   553369.99760300003        8709861.2288400009     
 Grounding Line, (x,y)   553369.92184500000        8709861.2933300007     
 Grounding Line, (x,y)   553546.47320899996        8709479.5171900000     
 Grounding Line, (x,y)   555094.25087100000        8711200.0775199998     
 Grounding Line, (x,y)   555092.24438199995        8711216.6719300002     
 Grounding Line, (x,y)   555111.10563799995        8711217.1879900005     
 Grounding Line, (x,y)   553126.07381800003        8710055.1978900004     
 Grounding Line, (x,y)   553457.95057400002        8709742.8705499992     
 Grounding Line, (x,y)   553457.99804700003        8709742.9910700005     
 Grounding Line, (x,y)   553266.22498000006        8710169.0230100006     
 Grounding Line, (x,y)   553245.42332599999        8710183.9531800002     
 Grounding Line, (x,y)   553267.97529300000        8710187.1901399996     
 Grounding Line, (x,y)   553546.76936399995        8709479.1602400001     
 Grounding Line, (x,y)   553546.66438400000        8709479.1403899994     
 Grounding Line, (x,y)   552941.32340500003        8710155.4042600002     
 Grounding Line, (x,y)   552779.83712100005        8710213.1501499992     
 Grounding Line, (x,y)   552779.66716199997        8710211.7785100006     
 Grounding Line, (x,y)   553551.39485299995        8709499.1944399998     
 Grounding Line, (x,y)   553616.19077600003        8709348.2723999992     
 Grounding Line, (x,y)   553654.99772700004        8709320.4462199993     
 Grounding Line, (x,y)   553654.99468700006        8709320.3222499993     
 Grounding Line, (x,y)   555149.36060999997        8710447.0553200003     
 Grounding Line, (x,y)   553592.47865199996        8709386.2823600005     
 Grounding Line, (x,y)   554458.99367800006        8711750.4210299999     
 Grounding Line, (x,y)   554476.18442399998        8711757.1851899996     
 Grounding Line, (x,y)   554482.26272200001        8711735.7067300007     
 Grounding Line, (x,y)   553233.10241799999        8710031.6631099992     
 Grounding Line, (x,y)   553495.00497999997        8709595.8606700003     
 Grounding Line, (x,y)   553495.09427000000        8709595.8463100009     
[...]
 Grounding Line, (x,y)   553213.48687599995        8710026.1723999996     
 Grounding Line, (x,y)   553212.98347400001        8710026.4217000008     
 Grounding Line, (x,y)   553211.98799099994        8710026.9146999996     
 Grounding Line, (x,y)   553210.01940999995        8710027.8896200005     
 Grounding Line, (x,y)   553206.12651500001        8710029.8175300006     
 Grounding Line, (x,y)   553174.18841499998        8710045.6344900001     
 Grounding Line, (x,y)   553172.21983399999        8710046.6094099991     
 Grounding Line, (x,y)   553171.22435000003        8710047.1024099998     
 Grounding Line, (x,y)   553170.72094899998        8710047.3517099991     
 Grounding Line, (x,y)   553170.57217900001        8710047.4253899995     
 Grounding Line, (x,y)   553170.46637899999        8710047.4777899999     
 Grounding Line, (x,y)   553170.37695599999        8710047.5220699999     
 Grounding Line, (x,y)   553170.28753199999        8710047.5663600005     
 Grounding Line, (x,y)   553170.19810799998        8710047.6106499992     
 Grounding Line, (x,y)   553170.10868399998        8710047.6549299993     
 Grounding Line, (x,y)   553170.01926099998        8710047.6992199998     
 Grounding Line, (x,y)   553169.37825700000        8710047.9510600008     
 Grounding Line, (x,y)   553169.28131400002        8710047.9662699997     
 Grounding Line, (x,y)   553169.18437100004        8710047.9814700000     
 Grounding Line, (x,y)   553169.08742800006        8710047.9966800008     
 Grounding Line, (x,y)   553168.99048499996        8710048.0118899997     
 Grounding Line, (x,y)   553168.89354299998        8710048.0270900000     
 Grounding Line, (x,y)   553168.79660000000        8710048.0423000008     
 Grounding Line, (x,y)   553168.69965700002        8710048.0575099997     
 Grounding Line, (x,y)   553168.60271400004        8710048.0727100000     
 Grounding Line, (x,y)   553168.49409800000        8710048.0897499993     
 Grounding Line, (x,y)   553168.34302999999        8710048.1134500001     
 Grounding Line, (x,y)   553167.83642800001        8710048.1929199994     
 Grounding Line, (x,y)   553141.64874400001        8710052.3007900007     
 Grounding Line, (x,y)   553128.52235300001        8710054.3598299995     
 Grounding Line, (x,y)   553127.53184499999        8710054.5152000003     
 Grounding Line, (x,y)   553126.76555899996        8710054.6354099996     
 Grounding Line, (x,y)   553124.69328000001        8710055.4426300004     
 Grounding Line, (x,y)   553124.20941300003        8710055.7300799992     
 Grounding Line, (x,y)   553123.25233499997        8710056.2986399997     
 Grounding Line, (x,y)   553086.88617199997        8710077.9023000002     
 Grounding Line, (x,y)   553084.99309300003        8710079.0269000009     
 Grounding Line, (x,y)   553084.03601599997        8710079.5954599995     
 Grounding Line, (x,y)   553083.55214799999        8710079.8829100002     
 Grounding Line, (x,y)   553083.40917799994        8710079.9678399991     
 Grounding Line, (x,y)   553083.30751700001        8710080.0282300003     
 Grounding Line, (x,y)   553083.22169499996        8710080.0792200007     
 Grounding Line, (x,y)   553083.13587300002        8710080.1302000005     
 Grounding Line, (x,y)   553083.05005099997        8710080.1811800003     
 Grounding Line, (x,y)   553082.96422900003        8710080.2321700007     
 Grounding Line, (x,y)   553082.87840699998        8710080.2831500005     
 Grounding Line, (x,y)   553082.79258500005        8710080.3341300003     
 Grounding Line, (x,y)   553082.70676299999        8710080.3851200007     
 Grounding Line, (x,y)   553082.62094099994        8710080.4361000005     
 Grounding Line, (x,y)   553082.26185400004        8710080.5976100005     
 Grounding Line, (x,y)   553082.16813300003        8710080.6273800004     
 Grounding Line, (x,y)   553082.07441100001        8710080.6571500003     
 Grounding Line, (x,y)   553081.98068899999        8710080.6869200002     
 Grounding Line, (x,y)   553081.88696799998        8710080.7166900001     
 Grounding Line, (x,y)   553081.79324599996        8710080.7464600001     
 Grounding Line, (x,y)   553081.69952499995        8710080.7762300000     
 Grounding Line, (x,y)   553081.60580300004        8710080.8059999999     
 Grounding Line, (x,y)   553081.51208200003        8710080.8357699998     
 Grounding Line, (x,y)   553081.40640700003        8710080.8693400007     
 Grounding Line, (x,y)   553081.25915800000        8710080.9161099996     
 Grounding Line, (x,y)   553080.76480500004        8710081.0731400009     
 Grounding Line, (x,y)   553048.05720799998        8710091.4626100007     
 Grounding Line, (x,y)   553043.55870900000        8710093.7565199994     
 Grounding Line, (x,y)   553019.19585999998        8710110.2372699995     
 Grounding Line, (x,y)   553018.29616300005        8710110.8458900005     
 Grounding Line, (x,y)   553015.92514099996        8710112.5437800009     
 Grounding Line, (x,y)   553015.80380300002        8710112.6391199995     
 Grounding Line, (x,y)   552991.76375499996        8710131.5277299993     
 Grounding Line, (x,y)   552989.57970700006        8710133.2437699996     
 Grounding Line, (x,y)   552988.46406100004        8710134.1203400008     
 Grounding Line, (x,y)   552987.89416999999        8710134.5681200009     
 Grounding Line, (x,y)   552987.60306200001        8710134.7968400009     
 Grounding Line, (x,y)   552987.51596400002        8710134.8652800005     
 Grounding Line, (x,y)   552987.43865999999        8710134.9260200001     
 Grounding Line, (x,y)   552987.36135499994        8710134.9867599998     
 Grounding Line, (x,y)   552987.28405100002        8710135.0474999994     
 Grounding Line, (x,y)   552987.20674699999        8710135.1082300004     
 Grounding Line, (x,y)   552987.12944299995        8710135.1689700000     
 Grounding Line, (x,y)   552987.05213800003        8710135.2297099996     
 Grounding Line, (x,y)   552986.97483399999        8710135.2904499993     
 Grounding Line, (x,y)   552986.89752999996        8710135.3511900008     
 Grounding Line, (x,y)   552985.73111800000        8710135.9077400006     
 Grounding Line, (x,y)   552985.58572300000        8710135.9702599999     
 Grounding Line, (x,y)   552985.09630800004        8710136.1807100009     
 Grounding Line, (x,y)   552984.13485300005        8710136.5941400006     
 Grounding Line, (x,y)   552944.98246099998        8710153.4296700004     
 Grounding Line, (x,y)   552912.54532599996        8710172.3937299997     
 Grounding Line, (x,y)   552910.70546600001        8710173.4799099993     
 Grounding Line, (x,y)   552909.77249200002        8710174.0307000000     
 Grounding Line, (x,y)   552909.29938999994        8710174.3100099992     
 Grounding Line, (x,y)   552909.15926700004        8710174.3927299995     
 Grounding Line, (x,y)   552909.05943000002        8710174.4516700003     
 Grounding Line, (x,y)   552908.97384800005        8710174.5021899994     
 Grounding Line, (x,y)   552908.88826499996        8710174.5527199991     
 Grounding Line, (x,y)   552908.80268299999        8710174.6032400001     
 Grounding Line, (x,y)   552908.71710100002        8710174.6537699997     
 Grounding Line, (x,y)   552908.63151900005        8710174.7042900007     
 Grounding Line, (x,y)   552908.54593699996        8710174.7548200004     
 Grounding Line, (x,y)   552908.46035399998        8710174.8053399995     
 Grounding Line, (x,y)   552908.37477200001        8710174.8558600005     
 Grounding Line, (x,y)   552908.01800000004        8710175.0200599991     
 Grounding Line, (x,y)   552907.92519600003        8710175.0516299997     
 Grounding Line, (x,y)   552907.83239200001        8710175.0832000002     
 Grounding Line, (x,y)   552907.73958800000        8710175.1147799995     
 Grounding Line, (x,y)   552907.64678399998        8710175.1463500001     
 Grounding Line, (x,y)   552907.55398099998        8710175.1779200006     
 Grounding Line, (x,y)   552907.46117699996        8710175.2094899993     
 Grounding Line, (x,y)   552907.36837299995        8710175.2410700005     
 Grounding Line, (x,y)   552907.27556900005        8710175.2726399992     
 Grounding Line, (x,y)   552907.17190199997        8710175.3079100009     
 Grounding Line, (x,y)   552907.02785600000        8710175.3569099996     
 Grounding Line, (x,y)   552906.54506300006        8710175.5211599991     
 Grounding Line, (x,y)   552905.60175599996        8710175.8420800008     
 Grounding Line, (x,y)   552900.15756099997        8710177.6942299996     
 Grounding Line, (x,y)   552893.12153300003        8710180.0879299995     
 Grounding Line, (x,y)   552869.17533100001        8710188.2345700003     
 Grounding Line, (x,y)   552868.23202500003        8710188.5554900002     
 Grounding Line, (x,y)   552867.74923199997        8710188.7197399996     
 Grounding Line, (x,y)   552867.60518499999        8710188.7687500007     
 Grounding Line, (x,y)   552867.50151800003        8710188.8040200006     
 Grounding Line, (x,y)   552867.40871500003        8710188.8355899993     
 Grounding Line, (x,y)   552867.31591100001        8710188.8671599999     
 Grounding Line, (x,y)   552866.94469499995        8710188.9934500009     
 Grounding Line, (x,y)   552866.85189100006        8710189.0250199996     
 Grounding Line, (x,y)   552866.75908800005        8710189.0566000007     
 Grounding Line, (x,y)   552866.38177600002        8710189.1676700003     
 Grounding Line, (x,y)   552866.28592499997        8710189.1916300002     
 Grounding Line, (x,y)   552866.19007300003        8710189.2155900002     
 Grounding Line, (x,y)   552866.09422199999        8710189.2395600006     
 Grounding Line, (x,y)   552865.99837000004        8710189.2635200005     
 Grounding Line, (x,y)   552865.90251799999        8710189.2874800004     
 Grounding Line, (x,y)   552865.80666700006        8710189.3114400003     
 Grounding Line, (x,y)   552865.71081500000        8710189.3354100008     
 Grounding Line, (x,y)   552865.61496300006        8710189.3593700007     
 Grounding Line, (x,y)   552865.50528799999        8710189.3867899999     
 Grounding Line, (x,y)   552865.35190699995        8710189.4251300003     
 Grounding Line, (x,y)   552864.83566800004        8710189.5541900005     
 Grounding Line, (x,y)   552863.82166400005        8710189.8076900002     
 Grounding Line, (x,y)   552861.82994099997        8710190.3056300003     
 Grounding Line, (x,y)   552857.91776700004        8710191.2836700007     
 Grounding Line, (x,y)   552850.23409799999        8710193.2045900002     
 Grounding Line, (x,y)   552843.94954800000        8710194.7757200003     
 Grounding Line, (x,y)   552787.67717100005        8710208.8438200001     
 Grounding Line, (x,y)   552783.76499699999        8710209.8218600005     
 Grounding Line, (x,y)   552781.77327400004        8710210.3197900001     
 Grounding Line, (x,y)   552780.75927000004        8710210.5732899997     
 Grounding Line, (x,y)   552780.24303100002        8710210.7023499999     
 Grounding Line, (x,y)   552777.31602699996        8710211.6822100002     
 Grounding Line, (x,y)   552776.29443300003        8710212.0862300005     
 Grounding Line, (x,y)   552704.76263600006        8710240.3756399993     
 Grounding Line, (x,y)   552694.72959100001        8710245.3859700002     
 Grounding Line, (x,y)   552687.22162199998        8710249.2950800005     
 Grounding Line, (x,y)   552681.05651300005        8710252.5050099995     
 Grounding Line, (x,y)   552666.96242100000        8710259.8432599995     
 Grounding Line, (x,y)   552659.45445199998        8710263.7523699999     
 Grounding Line, (x,y)   552655.65286300005        8710265.7317100000     
 Grounding Line, (x,y)   552653.72810399998        8710266.7338500004     
 Grounding Line, (x,y)   552652.75359099999        8710267.2412400004     
 Grounding Line, (x,y)   552652.26019199996        8710267.4981399998     
 Grounding Line, (x,y)   552652.11423599999        8710267.5741300005     
 Grounding Line, (x,y)   552652.01035899995        8710267.6282199994     
 Grounding Line, (x,y)   552651.92200699996        8710267.6742199995     
 Grounding Line, (x,y)   552651.83365499997        8710267.7202199996     
 Grounding Line, (x,y)   552651.74530299997        8710267.7662199996     
 Grounding Line, (x,y)   552651.65695099998        8710267.8122199997     
 Grounding Line, (x,y)   552651.56859899999        8710267.8582199998     
 Grounding Line, (x,y)   552651.48024700000        8710267.9042199999     
 Grounding Line, (x,y)   552651.39189500001        8710267.9502300005     
 Grounding Line, (x,y)   552651.30354300002        8710267.9962300006     
 Grounding Line, (x,y)   552650.94866500003        8710268.1736800000     
 Grounding Line, (x,y)   552650.85957800003        8710268.2164099999     
 Grounding Line, (x,y)   552650.77049100003        8710268.2591299992     
 Grounding Line, (x,y)   552650.68140400003        8710268.3018599991     
 Grounding Line, (x,y)   552650.59231700003        8710268.3445800003     
 Grounding Line, (x,y)   552650.50323000003        8710268.3873100001     
 Grounding Line, (x,y)   552650.41414300003        8710268.4300299995     
 Grounding Line, (x,y)   552650.32505600003        8710268.4727599993     
 Grounding Line, (x,y)   552650.23596900003        8710268.5154800005     
 Grounding Line, (x,y)   552650.13402999996        8710268.5643700007     
 Grounding Line, (x,y)   552649.99146799999        8710268.6327500008     
 Grounding Line, (x,y)   552649.51164000004        8710268.8628700003     
 Grounding Line, (x,y)   552648.56914699997        8710269.3148800004     
 Grounding Line, (x,y)   552643.08155300003        8710271.9466800001     
 Grounding Line, (x,y)   552635.93911399995        8710275.3721399996     
 Grounding Line, (x,y)   552611.62522599997        8710287.0328800008     
 Grounding Line, (x,y)   552610.68273400003        8710287.4848900009     
 Grounding Line, (x,y)   552610.20290599996        8710287.7150100004     
 Grounding Line, (x,y)   552610.06034299999        8710287.7833900005     
 Grounding Line, (x,y)   552609.95840500004        8710287.8322800007     
 Grounding Line, (x,y)   552609.86931800004        8710287.8750000000     
 Grounding Line, (x,y)   552609.78023100004        8710287.9177299999     
 Grounding Line, (x,y)   552609.69114400004        8710287.9604499992     
 Grounding Line, (x,y)   552609.60205700004        8710288.0031800009     
 Grounding Line, (x,y)   552609.51297000004        8710288.0459000003     
 Grounding Line, (x,y)   552609.42388300004        8710288.0886300001     
 Grounding Line, (x,y)   552609.33479600004        8710288.1313499995     
 Grounding Line, (x,y)   552609.24570900004        8710288.1740799993     
 Grounding Line, (x,y)   552608.71305699996        8710288.4094999991     
 Grounding Line, (x,y)   552608.62443700002        8710288.4469900001     
 Grounding Line, (x,y)   552608.53581799997        8710288.4844899997     
 Grounding Line, (x,y)   552608.44719800004        8710288.5219800007     
 Grounding Line, (x,y)   552608.35857899999        8710288.5594699997     
 Grounding Line, (x,y)   552608.26995900006        8710288.5969699994     
 Grounding Line, (x,y)   552608.18134000001        8710288.6344600003     
 Grounding Line, (x,y)   552608.08696500002        8710288.6743899994     
 Grounding Line, (x,y)   552607.95884400001        8710288.7285900004     
 Grounding Line, (x,y)   552607.53359100001        8710288.9085099995     
 Grounding Line, (x,y)   552606.71288300003        8710289.2557299994     
 Grounding Line, (x,y)   553880.24232700001        8709158.0861200001     
 Grounding Line, (x,y)   553879.61741399998        8709158.7562099993     
 Grounding Line, (x,y)   553879.29460400005        8709159.1023500003     
 Grounding Line, (x,y)   553879.19758299994        8709159.2063900009     
 Grounding Line, (x,y)   553879.12660900003        8709159.2824900001     
 Grounding Line, (x,y)   553879.06067499996        8709159.3531899992     
 Grounding Line, (x,y)   553878.99474200001        8709159.4238900002     
 Grounding Line, (x,y)   553878.92880899995        8709159.4945899993     
 Grounding Line, (x,y)   553878.86287499999        8709159.5652900003     
 Grounding Line, (x,y)   553878.79694200004        8709159.6359899994     
 Grounding Line, (x,y)   553878.73100899998        8709159.7066900004     
 Grounding Line, (x,y)   553878.66507500003        8709159.7773899995     
 Grounding Line, (x,y)   553878.59914199996        8709159.8480900005     
 Grounding Line, (x,y)   552779.46677000006        8710211.4764300007     
 Grounding Line, (x,y)   553546.74532300001        8709480.0328100007     
 Grounding Line, (x,y)   553656.33543800004        8709320.5215499997     
 Grounding Line, (x,y)   553656.24203600001        8709320.4292600006     
GroundedSolver: Done
Loading user function library: [ElmerIceSolvers]...[GroundedSolver_post]
MAIN: 
MAIN: -------------------------------------
MAIN:  Steady state iteration:            1
MAIN: -------------------------------------
MAIN: 
SingleSolver: Attempting to call solver
SingleSolver: Solver Equation string is: heightdepth
StructuredProjectToPlane: ------------------------------------------
StructuredProjectToPlane: Performing projection on a structured mesh
StructuredProjectToPlane: ------------------------------------------
DetectExtrudedStructure: Determining extruded structure
DetectExtrudedStructure: Unit vector of direction:   0.000   0.000   1.000
DetectExtrudedStructure: determine top and bottom pointers
DetectExtrudedStructure: Layered structure detected in 14 cycles
DetectExtrudedStructure:  Top and bottom pointer init time:   0.18857400000000268
DetectExtrudedStructure: Top and bottom pointer init rounds: 14
DetectExtrudedStructure: Number of nodes at the top: 41037
DetectExtrudedStructure: Number of nodes at the bottom: 41037
StructuredProjectToPlane: Created variable: depth
StructuredProjectToPlane: Created variable: height
StructuredProjectToPlane:  Projection time:    1.8132000000001369E-002
StructuredProjectToPlane: ------------------------------------------
Loading user function library: [StructuredProjectToPlane]...[StructuredProjectToPlane_post]
SingleSolver: Attempting to call solver
SingleSolver: Solver Equation string is: resultoutput
ResultOutputSolver: -------------------------------------
ResultOutputSolver: Saving with prefix: tb_s2_depthcalc
ResultOutputSolver: Working on mesh:
ResultOutputSolver: Dimension of mesh is: 3
ResultOutputSolver: Creating list for saving - if not present
ResultOutputSolver: Saving in unstructured VTK XML (.vtu) format
VtuOutputSolver: Saving results in VTK XML format with prefix: tb_s2_depthcalc
VtuOutputSolver: Saving number of partitions: 1
SolverOutputDirectory: Creating directory: ./vtuoutputs
GenerateSaveMask: Number of active elements 1308882 out of 1308882
GenerateSaveMask: Number of geometry nodes 615555 out of 615555
VtuOutputSolver: Total number of geometry nodes to save: 615555
VtuOutputSolver: Total number of dof nodes to save: 615555
VtuOutputSolver: Total number of elements to save: 1308882
VtuOutputSolver: Setting offset for boundary entities: 100
VtuOutputSolver: Writing the vtu file: ./vtuoutputs/tb_s2_depthcalc_t0001.vtu
AscBinWriteInit: Initializing buffered ascii/binary writing
ResultOutputSolver: -------------------------------------
Loading user function library: [ResultOutputSolve]...[ResultOutputSolver_post]
SaveResult: -----------------------------------------
SaveResult: Saving results to file: ./TB_S2_depthcalc_.result
SaveResult: Done writing results file
SaveResult: -----------------------------------------
ReloadInputFile: Realoading input file
LoadInputFile: Loading input file:
ElmerSolver: *** Elmer Solver: ALL DONE ***
ElmerSolver: The end
SOLVER TOTAL TIME(CPU,REAL):        27.62       30.09
ELMER SOLVER FINISHED AT: 2021/09/06 13:48:12
