ELMER SOLVER (v 9.0) STARTED AT: 2021/07/30 14:41:53
ParCommInit:  Initialize #PEs:            1
MAIN: 
MAIN: =============================================================
MAIN: ElmerSolver finite element software, Welcome!
MAIN: This program is free software licensed under (L)GPL
MAIN: Copyright 1st April 1995 - , CSC - IT Center for Science Ltd.
MAIN: Webpage http://www.csc.fi/elmer, Email elmeradm@csc.fi
MAIN: Version: 9.0 (Rev: b762e1b6, Compiled: 2021-06-21)
MAIN:  Running one task without MPI parallelization.
MAIN:  Running with just one thread per task.
MAIN:  HYPRE library linked in.
MAIN:  MUMPS library linked in.
MAIN:  Lua interpreter linked in.
MAIN: =============================================================
LoadInputFile: Trying to read "Run Control" section only
MAIN: 
MAIN: 
MAIN: -------------------------------------
MAIN: Reading Model: S2.sif
LoadInputFile: Scanning input file: S2.sif
LoadInputFile: Scanning only size info
LoadInputFile: First time visiting
LoadInputFile: Reading base load of sif file
LoadInputFile: Loading input file: S2.sif
LoadInputFile: Reading base load of sif file
CheckKeyword:  Unlisted keyword: [water density] in section: [constants]
CheckKeyword:  Unlisted keyword: [buoyancy use basal melt] in section: [constants]
CheckKeyword:  Unlisted keyword: [sea level] in section: [constants]
CheckKeyword:  Unlisted keyword: [gamma 0] in section: [constants]
CheckKeyword:  Unlisted keyword: [ice density] in section: [constants]
CheckKeyword:  Unlisted keyword: [sw density] in section: [constants]
CheckKeyword:  Unlisted keyword: [latent heat] in section: [constants]
CheckKeyword:  Unlisted keyword: [sw cp] in section: [constants]
CheckKeyword:  Unlisted keyword: [sea level] in section: [material 1]
CheckKeyword:  Unlisted keyword: [top surface variable name] in section: [solver 1]
CheckKeyword:  Unlisted keyword: [bottom surface variable name] in section: [solver 1]
CheckKeyword:  Unlisted keyword: [correct surface] in section: [solver 1]
CheckKeyword:  Unlisted keyword: [minimum height] in section: [solver 1]
CheckKeyword:  Unlisted keyword: [toler] in section: [solver 2]
CheckKeyword:  Unlisted keyword: [bedrock variable] in section: [solver 2]
WARNING:: LoadInputFile: There are no BCs in the system!
LoadInputFile: Number of Body Forces: 1
WARNING:: LoadInputFile: Entry missing for: Body Force 1
LoadInputFile: Number of Initial Conditions: 1
WARNING:: LoadInputFile: Entry missing for: Initial Condition 1
LoadInputFile: Number of Materials: 1
LoadInputFile: Number of Equations: 1
LoadInputFile: Number of Solvers: 4
LoadInputFile: Number of Bodies: 1
Loading user function library: [StructuredMeshMapper]...[StructuredMeshMapper_Init0]
Loading user function library: [ElmerIceSolvers]...[GroundedSolver_Init0]
Loading user function library: [StructuredProjectToPlane]...[StructuredProjectToPlane_Init0]
Loading user function library: [ResultOutputSolve]...[ResultOutputSolver_Init0]
LoadMesh: Starting
ElmerAsciiMesh: Performing step: 1
ElmerAsciiMesh: Base mesh name: ./../mesh/
InitializeMesh: Number of nodes in mesh: 29901
InitializeMesh: Number of bulk elements in mesh: 56470
InitializeMesh: Number of boundary elements in mesh: 3330
ElmerAsciiMesh: Performing step: 2
SetMeshDimension: Dimension of mesh is: 2
SetMeshDimension: Max dimension of mesh is: 2
ElmerAsciiMesh: Performing step: 3
ElmerAsciiMesh: Performing step: 4
PermuteNodeNumbering: Performing node mapping
MapBodiesAndBCs: Remapping boundaries
MapBodiesAndBCs: Minimum initial boundary index: 1
MapBodiesAndBCs: Maximum initial boundary index: 5
ElmerAsciiMesh: Performing step: 5
ElmerAsciiMesh: Performing step: 6
LoadMesh: Loading mesh done
LoadMesh: Elapsed REAL time:     0.2231 (s)
MeshStabParams: Computing stabilization parameters
MeshStabParams: Elapsed REAL time:     0.0060 (s)
UnitSegmentDivision: Creating functional division
UnitSegmentDivision: Convergence obtained in 135 iterations
UnitSegmentDivision: Mesh division ready
UnitSegmentDivision: w(0) :   0.0000E+00
UnitSegmentDivision: w(1) :   3.7444E-02
UnitSegmentDivision: w(2) :   7.8392E-02
UnitSegmentDivision: w(3) :   1.2317E-01
UnitSegmentDivision: w(4) :   1.7215E-01
UnitSegmentDivision: w(5) :   2.2571E-01
UnitSegmentDivision: w(6) :   2.8428E-01
UnitSegmentDivision: w(7) :   3.4833E-01
UnitSegmentDivision: w(8) :   4.1838E-01
UnitSegmentDivision: w(9) :   4.9499E-01
UnitSegmentDivision: w(10) :   5.7877E-01
UnitSegmentDivision: w(11) :   6.7039E-01
UnitSegmentDivision: w(12) :   7.7059E-01
UnitSegmentDivision: w(13) :   8.8017E-01
UnitSegmentDivision: w(14) :   1.0000E+00
MeshExtrude: First Extruded BC set to: 1
MeshExtrude: Number of new BCs for layers: 1
SetMeshDimension: Dimension of mesh is: 3
SetMeshDimension: Max dimension of mesh is: 3
NonNodalElements: Requested elements require creation of edges
FindMeshEdges: Determining faces in 3D mesh
FindMeshEdges: Determining edges in 3D mesh
MAIN: -------------------------------------
AddEquationBasics: Setting up solver: mapcoordinate_init
Loading user function library: [StructuredMeshMapper]...[StructuredMeshMapper_Init]
Loading user function library: [StructuredMeshMapper]...[StructuredMeshMapper_bulk]
Loading user function library: [StructuredMeshMapper]...[StructuredMeshMapper]
AddEquationBasics: Setting up solver: groundedmask
Loading user function library: [ElmerIceSolvers]...[GroundedSolver_Init]
Loading user function library: [ElmerIceSolvers]...[GroundedSolver_bulk]
Loading user function library: [ElmerIceSolvers]...[GroundedSolver]
AddEquationBasics: Creating standard variable: groundedmask
OptimizeBandwidth: ---------------------------------------------------------
OptimizeBandwidth: Computing matrix structure for: groundedmask...done.
OptimizeBandwidth: Half bandwidth without optimization: 59602
OptimizeBandwidth: 
OptimizeBandwidth: Bandwidth Optimization ...done.
OptimizeBandwidth: Half bandwidth after optimization: 4494
OptimizeBandwidth: ---------------------------------------------------------
AddEquationBasics: Setting up solver: heightdepth
Loading user function library: [StructuredProjectToPlane]...[StructuredProjectToPlane_Init]
Loading user function library: [StructuredProjectToPlane]...[StructuredProjectToPlane_bulk]
Loading user function library: [StructuredProjectToPlane]...[StructuredProjectToPlane]
AddEquationBasics: Setting up solver: resultoutput
Loading user function library: [ResultOutputSolve]...[ResultOutputSolver_Init]
Loading user function library: [ResultOutputSolve]...[ResultOutputSolver_bulk]
Loading user function library: [ResultOutputSolve]...[ResultOutputSolver]
Restart: Perfoming global Restart for:
LoadRestartFile: 
LoadRestartFile: --------------------------------------------
LoadRestartFile: Restart for mesh name:
LoadRestartFile: Restart for number of nodes: 448515
LoadRestartFile: Reading data from file: ../S1/readnc.result
LoadRestartFile: ASCII 3
LoadRestartFile: Reading ascii restart file version 3
LoadRestartFile: Total number of dofs in restart file: 4
LoadRestartFile: Creating variable: vx
LoadRestartFile: Creating variable: vy
LoadRestartFile: Creating variable: b
LoadRestartFile: Creating variable: h
LoadRestartFile: Reading time sequence:    1.000E-01
LoadRestartFile: Reading variables on timestep: 1
LoadRestartFile: Time spent for restart (s):      1.6280E+00
LoadRestartFile: All done
LoadRestartFile: --------------------------------------------
ElmerSolver: Number of timesteps to be saved: 1
SingleSolver: Attempting to call solver
SingleSolver: Solver Equation string is: mapcoordinate_init
StructuredMeshMapper: ---------------------------------------
StructuredMeshMapper: Performing mapping on a structured mesh
StructuredMeshMapper: ---------------------------------------
StructuredMeshMapper: Defaulting "Recompute Stabilization" to True.
DetectExtrudedStructure: Determining extruded structure
DetectExtrudedStructure: Unit vector of direction:   0.000   0.000   1.000
DetectExtrudedStructure: determine top and bottom pointers
DetectExtrudedStructure: Layered structure detected in 14 cycles
DetectExtrudedStructure:  Top and bottom pointer init time:   0.12800399999999890
DetectExtrudedStructure: Top and bottom pointer init rounds: 14
DetectExtrudedStructure: Number of nodes at the top: 29901
DetectExtrudedStructure: Number of nodes at the bottom: 29901
StructuredMeshMapper: Adjusting upper surface to maintain minimum height to: 0.1100E+02
StructuredMeshMapper: > Correct Surface < in case of intersecting upper and lower surface
StructuredMeshMapper: There seems to be 2055 (out of 448515) limited heights!
StructuredMeshMapper: There seems to be 2055 (out of 448515) tangled nodes!
StructuredMeshMapper:  Active coordinate mapping time:    5.1779999999990167E-003
MeshStabParams: Computing stabilization parameters
MeshStabParams: Elapsed REAL time:     0.1343 (s)
Loading user function library: [StructuredMeshMapper]...[StructuredMeshMapper_post]
SingleSolver: Attempting to call solver
SingleSolver: Solver Equation string is: groundedmask
GroundedSolver: Computing grounded mask from geometry
GroundedSolver: Memory allocation done.
GroundedSolver: Bedrock Variable name found
GroundedSolver: No front variable defined. Some basal frontal nodes may be left with GroundedMask=1
 Grounding Line, (x,y)   553942.64901499997        8709096.9509599991     
 Grounding Line, (x,y)   553942.55480299995        8709097.2608000003     
 Grounding Line, (x,y)   553943.37150400004        8709096.1500100009     
 Grounding Line, (x,y)   553942.59313499997        8709097.3361900002     
 Grounding Line, (x,y)   553718.30930399999        8709298.6593500003     
 Grounding Line, (x,y)   553718.69553699996        8709298.8132099994     
 Grounding Line, (x,y)   553718.46513599996        8709298.6450699996     
 Grounding Line, (x,y)   553719.36439300003        8709297.8036000002     
 Grounding Line, (x,y)   553719.27413699997        8709297.8855499998     
 Grounding Line, (x,y)   553719.24698099995        8709297.9906500001     
 Grounding Line, (x,y)   553718.50312699995        8709298.5625199992     
 Grounding Line, (x,y)   553260.94305000000        8709969.8170599993     
 Grounding Line, (x,y)   553260.26775500004        8709971.0627400000     
 Grounding Line, (x,y)   553261.10810700001        8709969.6800800003     
 Grounding Line, (x,y)   553453.51289200003        8709737.5163400006     
 Grounding Line, (x,y)   553453.56508500001        8709737.6191199999     
 Grounding Line, (x,y)   553453.72109400004        8709737.2223400008     
 Grounding Line, (x,y)   553942.52424499998        8709097.8459900003     
 Grounding Line, (x,y)   553260.69764599996        8709970.0765300002     
 Grounding Line, (x,y)   553453.74238700001        8709737.8191000000     
 Grounding Line, (x,y)   553300.06257299997        8709927.2240900006     
 Grounding Line, (x,y)   553300.24546799995        8709926.9899899997     
 Grounding Line, (x,y)   553300.14823199995        8709926.9781500008     
 Grounding Line, (x,y)   553261.19482199999        8709969.7451799996     
 Grounding Line, (x,y)   553627.58838900004        8709329.6101300009     
 Grounding Line, (x,y)   553627.55607399996        8709329.7345499992     
 Grounding Line, (x,y)   553627.82303600002        8709329.6110800002     
 Grounding Line, (x,y)   552959.50747600000        8710142.7212000005     
 Grounding Line, (x,y)   552959.70872800006        8710142.4203600008     
 Grounding Line, (x,y)   552959.54148899997        8710142.5442999993     
 Grounding Line, (x,y)   553575.31836000003        8709412.2155300006     
 Grounding Line, (x,y)   553575.83202800003        8709410.0569700003     
 Grounding Line, (x,y)   553575.17179599998        8709411.7900799997     
 Grounding Line, (x,y)   552959.90259099996        8710142.4404300004     
 Grounding Line, (x,y)   553575.53936099994        8709413.0551600009     
 Grounding Line, (x,y)   553260.38219100004        8709970.3020799998     
 Grounding Line, (x,y)   553260.60987599997        8709970.0273499992     
 Grounding Line, (x,y)   553451.76266300003        8709739.2909999993     
 Grounding Line, (x,y)   553450.50420199998        8709741.5816799998     
 Grounding Line, (x,y)   553453.12974300003        8709738.5524199996     
 Grounding Line, (x,y)   553029.14210499998        8710090.7569399998     
 Grounding Line, (x,y)   553028.45437000005        8710091.4906900004     
 Grounding Line, (x,y)   553029.73994500004        8710090.6503699999     
 Grounding Line, (x,y)   553719.52720799996        8709297.7128899992     
 Grounding Line, (x,y)   552960.56149999995        8710142.4563299995     
 Grounding Line, (x,y)   552963.87147500005        8710139.8308700006     
 Grounding Line, (x,y)   552961.52567400003        8710140.8675900009     
 Grounding Line, (x,y)   553941.83739700005        8709098.2552700005     
 Grounding Line, (x,y)   553941.71303300001        8709098.1163899992     
 Grounding Line, (x,y)   553941.61907699995        8709098.1601800006     
 Grounding Line, (x,y)   553279.89282600000        8709943.8255800009     
 Grounding Line, (x,y)   553280.04818799999        8709943.9211199991     
 Grounding Line, (x,y)   553280.12765699998        8709943.2644800004     
 Grounding Line, (x,y)   553492.61730399996        8709590.3355899993     
 Grounding Line, (x,y)   553492.90048399998        8709590.1028099991     
 Grounding Line, (x,y)   553492.63983999996        8709590.1934099998     
 Grounding Line, (x,y)   552957.53468100005        8710142.7572099995     
 Grounding Line, (x,y)   552955.14323100005        8710143.9650100004     
 Grounding Line, (x,y)   552959.24941399996        8710143.1070399992     
 Grounding Line, (x,y)   552578.65338599996        8710293.0469400007     
 Grounding Line, (x,y)   552578.04511700000        8710293.4862399995     
 Grounding Line, (x,y)   552579.17521000002        8710293.0151499994     
 Grounding Line, (x,y)   553028.82638800004        8710090.8861599993     
 Grounding Line, (x,y)   553941.51541800005        8709098.2381599993     
 Grounding Line, (x,y)   552917.04890299996        8710160.6092700008     
 Grounding Line, (x,y)   552917.33884900005        8710160.9440800007     
 Grounding Line, (x,y)   552917.17788900004        8710160.6476399992     
 Grounding Line, (x,y)   553030.69069500000        8710090.0985300001     
 Grounding Line, (x,y)   553031.39756800001        8710089.2406399995     
 Grounding Line, (x,y)   553030.59685800003        8710089.7453899998     
 Grounding Line, (x,y)   553387.17806299997        8709834.7391199991     
 Grounding Line, (x,y)   553387.38519800000        8709834.6446400005     
 Grounding Line, (x,y)   553387.25064200000        8709834.5673399996     
 Grounding Line, (x,y)   553030.69072199997        8710089.5270799994     
 Grounding Line, (x,y)   553492.65631600004        8709590.4061399996     
 Grounding Line, (x,y)   553030.84301399998        8710089.3658600003     
 Grounding Line, (x,y)   552579.49717400002        8710293.2142099999     
 Grounding Line, (x,y)   552960.35077999998        8710141.9714000002     
 Grounding Line, (x,y)   552960.29771700001        8710141.8035100009     
 Grounding Line, (x,y)   552960.26802199997        8710141.8663899992     
 Grounding Line, (x,y)   553129.53097700002        8710047.9985399991     
 Grounding Line, (x,y)   553131.26872900000        8710047.5696799997     
 Grounding Line, (x,y)   553129.93717499997        8710047.6539600007     
 Grounding Line, (x,y)   552917.04419799999        8710160.8512500003     
 Grounding Line, (x,y)   553279.87199400004        8709943.6185800005     
 Grounding Line, (x,y)   553029.44269599998        8710090.5814800002     
 Grounding Line, (x,y)   553465.36662999995        8709641.5625400003     
 Grounding Line, (x,y)   553465.46531000000        8709641.6318399999     
 Grounding Line, (x,y)   553465.39187100006        8709641.4119700007     
 Grounding Line, (x,y)   553900.22727000003        8709127.2232700009     
 Grounding Line, (x,y)   553900.16954699997        8709127.3029800002     
 Grounding Line, (x,y)   553900.31618099997        8709127.1781300008     
 Grounding Line, (x,y)   553575.13651099999        8709412.6368000004     
 Grounding Line, (x,y)   553574.98626499996        8709412.2771000005     
 Grounding Line, (x,y)   553575.01660199999        8709412.5957800001     
 Grounding Line, (x,y)   553492.69480599998        8709590.0665499996     
 Grounding Line, (x,y)   552799.43163200002        8710194.7625500001     
 Grounding Line, (x,y)   552799.28482599999        8710194.7348800004     
 Grounding Line, (x,y)   552799.41809699999        8710195.0869699996     
 Grounding Line, (x,y)   553470.62119099998        8709624.5593500007     
 Grounding Line, (x,y)   553470.70638100000        8709624.6782300007     
 Grounding Line, (x,y)   553470.69258499995        8709624.4777399991     
 Grounding Line, (x,y)   553453.39913300006        8709738.0001899991     
 Grounding Line, (x,y)   553453.28447199997        8709738.0797199998     
 Grounding Line, (x,y)   553470.88941199996        8709624.6567400005     
 Grounding Line, (x,y)   552799.51905600005        8710194.8162099998     
 Grounding Line, (x,y)   553465.31149899994        8709641.5194300003     
 Grounding Line, (x,y)   552958.54434999998        8710142.2472799998     
 Grounding Line, (x,y)   552958.20386899996        8710142.4192399997     
 Grounding Line, (x,y)   552958.71935899998        8710142.3630999997     
 Grounding Line, (x,y)   553469.66258400003        8709625.7075599991     
 Grounding Line, (x,y)   553469.43123400002        8709626.4293699991     
 Grounding Line, (x,y)   553470.12673599995        8709625.4309000000     
 Grounding Line, (x,y)   553129.33559899998        8710048.4449099991     
 Grounding Line, (x,y)   553128.44839999999        8710048.5607399996     
 Grounding Line, (x,y)   553128.81897499994        8710048.7580600008     
 Grounding Line, (x,y)   553128.57738399995        8710048.5543099996     
 Grounding Line, (x,y)   553563.41294099996        8709439.9830699991     
 Grounding Line, (x,y)   553563.06862499996        8709440.5972600002     
 Grounding Line, (x,y)   553564.01454799995        8709439.8020900004     
 Grounding Line, (x,y)   553261.47258700000        8709968.2762100007     
 Grounding Line, (x,y)   553261.70939600002        8709967.3428900000     
 Grounding Line, (x,y)   553261.38650100003        8709968.0310699996     
 Grounding Line, (x,y)   553261.37295500003        8709967.7928299997     
 Grounding Line, (x,y)   553563.70296799997        8709439.6274200007     
 Grounding Line, (x,y)   553563.58941799996        8709439.6682799999     
 Grounding Line, (x,y)   553492.79121699999        8709590.0053199995     
 Grounding Line, (x,y)   552664.25894600002        8710253.6955500003     
 Grounding Line, (x,y)   552664.34005799994        8710253.4655099995     
 Grounding Line, (x,y)   552664.23623000004        8710253.5470499992     
 Grounding Line, (x,y)   553278.33852800005        8709945.1039300002     
 Grounding Line, (x,y)   553278.09928199998        8709945.4238900002     
 Grounding Line, (x,y)   553278.51838200004        8709945.1340500005     
 Grounding Line, (x,y)   553261.31645799999        8709969.1085899994     
 Grounding Line, (x,y)   553261.24750499998        8709969.1465799995     
 Grounding Line, (x,y)   553261.42101199995        8709969.2250500005     
 Grounding Line, (x,y)   553563.78927299997        8709439.6788199991     
 Grounding Line, (x,y)   553029.29972699995        8710090.5615800004     
 Grounding Line, (x,y)   553261.19771700003        8709969.2273100000     
 Grounding Line, (x,y)   553718.51791099994        8709298.4503099993     
 Grounding Line, (x,y)   553718.69165699999        8709298.4537000004     
 Grounding Line, (x,y)   552958.87308199995        8710142.5327799991     
 Grounding Line, (x,y)   553128.49594399997        8710048.7500199992     
 Grounding Line, (x,y)   553232.35081300000        8710005.4305700008     
 Grounding Line, (x,y)   553232.24745699996        8710005.4318400007     
 Grounding Line, (x,y)   553232.17086199997        8710005.5186999999     
 Grounding Line, (x,y)   552664.42968900001        8710253.5480599999     
 Grounding Line, (x,y)   552664.28975400003        8710254.4323699996     
 Grounding Line, (x,y)   553029.89251999999        8710090.2744399998     
 Grounding Line, (x,y)   553030.07936099998        8710090.3987399992     
 Grounding Line, (x,y)   553030.03265499999        8710090.2609800007     
 Grounding Line, (x,y)   553020.71924600005        8710104.0602700002     
 Grounding Line, (x,y)   553028.19620899996        8710104.4508900009     
 Grounding Line, (x,y)   553020.77058400004        8710103.9768400006     
 Grounding Line, (x,y)   553301.17628999997        8709925.9172900002     
 Grounding Line, (x,y)   553301.21869500005        8709925.6429299992     
 Grounding Line, (x,y)   553301.11962300004        8709925.7948700003     
 Grounding Line, (x,y)   553020.82192200003        8710103.8934199996     
 Grounding Line, (x,y)   553453.55081199994        8709737.2009200007     
 Grounding Line, (x,y)   553453.55915500002        8709737.1194899995     
 Grounding Line, (x,y)   552800.07401700004        8710194.9433999993     
 Grounding Line, (x,y)   552800.22517800005        8710195.3958500009     
 Grounding Line, (x,y)   552800.15281100001        8710194.7186399996     
 Grounding Line, (x,y)   553020.87326000002        8710103.8099900000     
 Grounding Line, (x,y)   553020.92459800001        8710103.7265700009     
 Grounding Line, (x,y)   553020.97593600000        8710103.6431399994     
 Grounding Line, (x,y)   553278.66587699996        8709945.2627300005     
 Grounding Line, (x,y)   553021.02727399999        8710103.5597200003     
 Grounding Line, (x,y)   553454.70617899997        8709738.5227799993     
 Grounding Line, (x,y)   553232.16661299998        8710005.4463500008     
 Grounding Line, (x,y)   553021.07861199998        8710103.4762999993     
 Grounding Line, (x,y)   553826.84255700000        8709212.8018200006     
 Grounding Line, (x,y)   553836.87873800006        8709210.6654000003     
 Grounding Line, (x,y)   553826.88066300005        8709212.7100200001     
 Grounding Line, (x,y)   553826.91876999999        8709212.6182199996     
 Grounding Line, (x,y)   553826.95687600004        8709212.5264100004     
 Grounding Line, (x,y)   553826.99498299998        8709212.4346099999     
 Grounding Line, (x,y)   552800.28593500005        8710194.6674700007     
 Grounding Line, (x,y)   553827.03308900003        8709212.3428099994     
 Grounding Line, (x,y)   553827.07119599998        8709212.2510100007     
 Grounding Line, (x,y)   553827.10930200003        8709212.1592100002     
 Grounding Line, (x,y)   553827.14740899997        8709212.0673999991     
 Grounding Line, (x,y)   553827.18551500002        8709211.9756000005     
 Grounding Line, (x,y)   553827.22362199996        8709211.8838000000     
 Grounding Line, (x,y)   553827.26809499995        8709211.7766600009     
 Grounding Line, (x,y)   553029.84248400002        8710090.3517600000     
 Grounding Line, (x,y)   553531.30835099996        8709545.3609400000     
 Grounding Line, (x,y)   553538.60861400003        8709546.8468100000     
 Grounding Line, (x,y)   553531.32601700001        8709545.2645800002     
 Grounding Line, (x,y)   553062.60225899995        8710078.3924599998     
 Grounding Line, (x,y)   553062.42202399997        8710078.3924100008     
 Grounding Line, (x,y)   553062.52986799995        8710078.5090800002     
 Grounding Line, (x,y)   553531.34368199995        8709545.1682200003     
 Grounding Line, (x,y)   553531.36134800001        8709545.0718699992     
 Grounding Line, (x,y)   553531.37901399995        8709544.9755099993     
 Grounding Line, (x,y)   553531.39667900000        8709544.8791499995     
 Grounding Line, (x,y)   553531.41434500006        8709544.7827899996     
 Grounding Line, (x,y)   553531.43201100000        8709544.6864299998     
 Grounding Line, (x,y)   553531.44967700006        8709544.5900699999     
 Grounding Line, (x,y)   553531.46734199999        8709544.4937100001     
 Grounding Line, (x,y)   553531.48500800005        8709544.3973500002     
 Grounding Line, (x,y)   553531.50470499997        8709544.2899200004     
 Grounding Line, (x,y)   553453.67581699998        8709736.9315099996     
 Grounding Line, (x,y)   553453.58947000001        8709737.0154999997     
 Grounding Line, (x,y)   553827.41818399995        8709211.4150799997     
 Grounding Line, (x,y)   553300.54882100003        8709926.8471000008     
 Grounding Line, (x,y)   553300.13377900003        8709927.4560499992     
 Grounding Line, (x,y)   552664.71014099999        8710253.3087399993     
 Grounding Line, (x,y)   553062.24640800001        8710078.6851199996     
 Grounding Line, (x,y)   553062.15259900002        8710078.6541300006     
 Grounding Line, (x,y)   553062.22133500001        8710078.8545100000     
 Grounding Line, (x,y)   553465.35055900004        8709641.6495200004     
 Grounding Line, (x,y)   553465.31692100002        8709641.7588400003     
 Grounding Line, (x,y)   553531.57028099999        8709543.9322299995     
 Grounding Line, (x,y)   553062.04689700005        8710078.6520300005     
 Grounding Line, (x,y)   552960.53332399996        8710143.8938699998     
 Grounding Line, (x,y)   553453.54166200000        8709737.2858099993     
 Grounding Line, (x,y)   553163.10213500005        8710055.4471099991     
 Grounding Line, (x,y)   553163.27259099996        8710045.5841600001     
 Grounding Line, (x,y)   553163.17364800000        8710045.5901900008     
 Grounding Line, (x,y)   553163.05921800004        8710045.5971700009     
 Grounding Line, (x,y)   553163.37153400003        8710045.5781200007     
 Grounding Line, (x,y)   553163.47047700000        8710045.5720899999     
 Grounding Line, (x,y)   553163.56942099996        8710045.5660599992     
 Grounding Line, (x,y)   553163.66836400004        8710045.5600300003     
 Grounding Line, (x,y)   553163.76730700000        8710045.5539900009     
 Grounding Line, (x,y)   553163.86625099997        8710045.5479600001     
 Grounding Line, (x,y)   553163.96519400005        8710045.5419299994     
 Grounding Line, (x,y)   553164.06413700001        8710045.5358899999     
 Grounding Line, (x,y)   553300.77869900002        8709926.9952900000     
 Grounding Line, (x,y)   553162.67383600003        8710045.6206700001     
 Grounding Line, (x,y)   552578.96284000005        8710292.8234400004     
 Grounding Line, (x,y)   552579.10652300005        8710292.8847800009     
 Grounding Line, (x,y)   553299.45377899997        8709926.9580700006     
 Grounding Line, (x,y)   553299.16978700005        8709927.1976900008     
 Grounding Line, (x,y)   553299.54046000005        8709927.0626500007     
 Grounding Line, (x,y)   553161.91517699999        8710045.6669299994     
 Grounding Line, (x,y)   552664.43023299996        8710253.3067099992     
 Grounding Line, (x,y)   552664.32837799995        8710253.3246999998     
 Grounding Line, (x,y)   553414.91265800002        8709821.8284200002     
 Grounding Line, (x,y)   553421.57327000005        8709824.4339700006     
 Grounding Line, (x,y)   553414.95870700001        8709821.7412999999     
 Grounding Line, (x,y)   553415.00475600001        8709821.6541900001     
 Grounding Line, (x,y)   552960.23056599998        8710141.9349900000     
 Grounding Line, (x,y)   553415.05080500001        8709821.5670699999     
 Grounding Line, (x,y)   553415.09685300000        8709821.4799499996     
 Grounding Line, (x,y)   553415.14290199999        8709821.3928299993     
 Grounding Line, (x,y)   553415.18895099999        8709821.3057100009     
 Grounding Line, (x,y)   553927.21917499998        8709111.7776999995     
 Grounding Line, (x,y)   553925.07467899995        8709113.1633800007     
 Grounding Line, (x,y)   553932.04412099998        8709113.2436800003     
 Grounding Line, (x,y)   552648.42415500002        8710266.1508900002     
 Grounding Line, (x,y)   552646.30480200006        8710262.7879499998     
 Grounding Line, (x,y)   552646.21751200000        8710262.8364499994     
 Grounding Line, (x,y)   552646.13022199995        8710262.8849400003     
 Grounding Line, (x,y)   553301.12167799997        8709925.7065999992     
 Grounding Line, (x,y)   553301.47003700002        8709926.8441000003     
 Grounding Line, (x,y)   553300.88539700001        8709926.5792900007     
 Grounding Line, (x,y)   553300.87858799996        8709926.7604499999     
 Grounding Line, (x,y)   553573.49609300005        8709429.5379499998     
 Grounding Line, (x,y)   553573.48973399994        8709429.6358800009     
 Grounding Line, (x,y)   553580.69000499998        8709429.0650999993     
 Grounding Line, (x,y)   553573.50321800006        8709429.4282300007     
 Grounding Line, (x,y)   553573.48337599996        8709429.7337999996     
 Grounding Line, (x,y)   553573.47701699997        8709429.8317200001     
 Grounding Line, (x,y)   553573.47065799998        8709429.9296499994     
 Grounding Line, (x,y)   553573.46429999999        8709430.0275699999     
 Grounding Line, (x,y)   553573.45794100000        8709430.1254900005     
 Grounding Line, (x,y)   553573.45158200001        8709430.2234199997     
 Grounding Line, (x,y)   553573.44522400002        8709430.3213400003     
 Grounding Line, (x,y)   553573.43886500003        8709430.4192699995     
 Grounding Line, (x,y)   553573.43250600004        8709430.5171900000     
 Grounding Line, (x,y)   553062.76969600003        8710078.1342999991     
 Grounding Line, (x,y)   553062.72195399995        8710078.2549200002     
 Grounding Line, (x,y)   553062.92251499998        8710078.1860700008     
 Grounding Line, (x,y)   553369.33976700006        8709853.1699700002     
 Grounding Line, (x,y)   553367.05948699999        8709854.5999699999     
 Grounding Line, (x,y)   553372.30847199995        8709853.7627499998     
 Grounding Line, (x,y)   553564.70006499998        8709438.8612799998     
 Grounding Line, (x,y)   553565.30116599996        8709438.7143300008     
 Grounding Line, (x,y)   553564.80362499994        8709438.7017299999     
 Grounding Line, (x,y)   553459.48060600006        8709727.9287800007     
 Grounding Line, (x,y)   553457.84934099996        8709730.2397399992     
 Grounding Line, (x,y)   553463.22145900002        8709727.0761099998     
 Grounding Line, (x,y)   553627.30827000004        8709329.8839599993     
 Grounding Line, (x,y)   553628.09415699996        8709329.9602099992     
 Grounding Line, (x,y)   553466.76512500003        8709702.6272400003     
 Grounding Line, (x,y)   553466.77889900003        8709704.5280000009     
 Grounding Line, (x,y)   553470.69927200000        8709707.0994700007     
 Grounding Line, (x,y)   553470.75701599999        8709625.4149300009     
 Grounding Line, (x,y)   553791.54006000003        8709249.5898300000     
 Grounding Line, (x,y)   553793.39914999995        8709252.5933599994     
 Grounding Line, (x,y)   553791.58431099996        8709249.4880599994     
 Grounding Line, (x,y)   552960.50404100004        8710141.5065100007     
 Grounding Line, (x,y)   552960.52798599994        8710141.3085200004     
 Grounding Line, (x,y)   552960.42186200002        8710141.4573999997     
 Grounding Line, (x,y)   553791.73228600004        8709249.1477099992     
 Grounding Line, (x,y)   553470.41007700004        8709625.1530099995     
 Grounding Line, (x,y)   553470.48522399995        8709624.9549899995     
 Grounding Line, (x,y)   552664.20630399999        8710253.6205100007     
 Grounding Line, (x,y)   553493.21045200003        8709590.5228100009     
 Grounding Line, (x,y)   553492.95885800000        8709589.9011000004     
 Grounding Line, (x,y)   553301.02681199997        8709926.4645600002     
 Grounding Line, (x,y)   553061.93799300003        8710078.8057799991     
 Grounding Line, (x,y)   553061.78988800000        8710078.7307600006     
 Grounding Line, (x,y)   553061.68863999995        8710079.1757200006     
 Grounding Line, (x,y)   552800.49374700000        8710194.5698000006     
 Grounding Line, (x,y)   553486.74542799999        8709605.4432900008     
 Grounding Line, (x,y)   553491.07833599998        8709607.6246099994     
 Grounding Line, (x,y)   553486.77670299995        8709605.3507700004     
 Grounding Line, (x,y)   553486.80797800003        8709605.2582500000     
 Grounding Line, (x,y)   553159.19822599995        8710045.8325900007     
 Grounding Line, (x,y)   553152.66463500005        8710046.2309799995     
 Grounding Line, (x,y)   553886.25978700002        8709146.5117000006     
 Grounding Line, (x,y)   553892.72280100000        8709148.8360200003     
 Grounding Line, (x,y)   553886.31750899996        8709146.4319899995     
 Grounding Line, (x,y)   553486.83925299998        8709605.1657200009     
 Grounding Line, (x,y)   553886.37523200002        8709146.3522800002     
 Grounding Line, (x,y)   553886.43295499997        8709146.2725600004     
 Grounding Line, (x,y)   553886.49067800003        8709146.1928499993     
 Grounding Line, (x,y)   553886.54839999997        8709146.1131400000     
 Grounding Line, (x,y)   553886.60612300003        8709146.0334300008     
 Grounding Line, (x,y)   553209.36126000003        8710021.4271200001     
 Grounding Line, (x,y)   553207.01472199999        8710024.0037099998     
 Grounding Line, (x,y)   553223.77971000003        8710036.4074900001     
 Grounding Line, (x,y)   553886.66384599998        8709145.9537099991     
 Grounding Line, (x,y)   553886.72156900004        8709145.8739999998     
 Grounding Line, (x,y)   553486.87052800006        8709605.0732000005     
 Grounding Line, (x,y)   553486.90180300002        8709604.9806800000     
 Grounding Line, (x,y)   553486.93307799997        8709604.8881599996     
 Grounding Line, (x,y)   553486.96435300005        8709604.7956399992     
 Grounding Line, (x,y)   553486.99562800000        8709604.7031200007     
 Grounding Line, (x,y)   553487.02690299996        8709604.6105899997     
 Grounding Line, (x,y)   553492.86654800002        8709589.9560499992     
 Grounding Line, (x,y)   553487.05817800004        8709604.5180699993     
 Grounding Line, (x,y)   553487.09274600004        8709604.4158100002     
 Grounding Line, (x,y)   553564.23108599999        8709440.0835999995     
 Grounding Line, (x,y)   553465.28100299998        8709641.1558800004     
 Grounding Line, (x,y)   553465.84081400000        8709641.3523800001     
 Grounding Line, (x,y)   552777.56055299996        8710209.3170999996     
 Grounding Line, (x,y)   552777.88566799997        8710205.1355200000     
 Grounding Line, (x,y)   552777.79684900003        8710205.1799299996     
 Grounding Line, (x,y)   552777.70802999998        8710205.2243399993     
 Grounding Line, (x,y)   553487.20740900002        8709604.0766000003     
 Grounding Line, (x,y)   552777.61921100004        8710205.2687500007     
 Grounding Line, (x,y)   552777.53039199999        8710205.3131600004     
 Grounding Line, (x,y)   552594.94709200005        8710288.0237799995     
 Grounding Line, (x,y)   552588.30027999997        8710289.8535200004     
 Grounding Line, (x,y)   552600.56399800000        8710289.4856800009     
 Grounding Line, (x,y)   552777.44157300005        8710205.3575700000     
 Grounding Line, (x,y)   552777.35275399999        8710205.4019799996     
 Grounding Line, (x,y)   552777.26393500005        8710205.4463899992     
 Grounding Line, (x,y)   552777.17511600000        8710205.4908000007     
 Grounding Line, (x,y)   553465.27025900001        8709641.4458600003     
 Grounding Line, (x,y)   552798.79761799995        8710194.6795499995     
 Grounding Line, (x,y)   552798.44914899999        8710194.8537799995     
 Grounding Line, (x,y)   552798.90570300003        8710194.7368700001     
 Grounding Line, (x,y)   553492.86224199994        8709589.8869499993     
 Grounding Line, (x,y)   553009.65462799999        8710108.0333999991     
 Grounding Line, (x,y)   553010.04536700004        8710108.0852000006     
 Grounding Line, (x,y)   553009.80620300001        8710107.7998300008     
 Grounding Line, (x,y)   553564.71261100005        8709439.0414099991     
 Grounding Line, (x,y)   552644.45932300005        8710263.8132199999     
 Grounding Line, (x,y)   552641.96029299998        8710265.2015700005     
 Grounding Line, (x,y)   553260.44024100003        8709969.9162200000     
 Grounding Line, (x,y)   553260.54777199996        8709969.8874100000     
 Grounding Line, (x,y)   553470.78681299998        8709623.9926500004     
 Grounding Line, (x,y)   553470.87557200005        8709623.8207600005     
 Grounding Line, (x,y)   553470.75244499999        8709623.8940600008     
 Grounding Line, (x,y)   553487.61267099995        8709602.8776999991     
 Grounding Line, (x,y)   553042.94306099997        8710086.6336000003     
 Grounding Line, (x,y)   553042.84550900001        8710086.6556199994     
 Grounding Line, (x,y)   553049.19289800001        8710089.8719100002     
 Grounding Line, (x,y)   553279.12434700003        8709944.9126500003     
 Grounding Line, (x,y)   553279.13812599995        8709945.0994899999     
 Grounding Line, (x,y)   553279.29095199995        8709944.8652800005     
 Grounding Line, (x,y)   553372.67549900000        8709850.3359500002     
 Grounding Line, (x,y)   553374.36659800005        8709848.4032700006     
 Grounding Line, (x,y)   553043.04061200004        8710086.6115700006     
 Grounding Line, (x,y)   553887.54829499999        8709144.7323300000     
 Grounding Line, (x,y)   553889.07027000003        8709142.6305599995     
 Grounding Line, (x,y)   553941.31316300004        8709098.4065899998     
 Grounding Line, (x,y)   553619.48617499997        8709342.6167699993     
 Grounding Line, (x,y)   553623.60566100001        8709333.1021899991     
 Grounding Line, (x,y)   553619.12336900004        8709338.1691299994     
 Grounding Line, (x,y)   553470.64973800001        8709624.8144300003     
 Grounding Line, (x,y)   553043.13816400000        8710086.5895399991     
 Grounding Line, (x,y)   553802.04891799996        8709225.8467200007     
 Grounding Line, (x,y)   553801.95957099996        8709225.9153499994     
 Grounding Line, (x,y)   553802.10875500005        8709225.9086099993     
 Grounding Line, (x,y)   552580.26364400005        8710292.6998399999     
 Grounding Line, (x,y)   552580.17609500000        8710292.7717599999     
 Grounding Line, (x,y)   552580.25911700004        8710292.9076000005     
 Grounding Line, (x,y)   553531.37373200001        8709556.5162000004     
 Grounding Line, (x,y)   553530.88951000001        8709545.9054300003     
 Grounding Line, (x,y)   553530.82967600005        8709545.9832199998     
 Grounding Line, (x,y)   553043.23571499996        8710086.5675099995     
 Grounding Line, (x,y)   552599.30362699996        8710286.8245100006     
 Grounding Line, (x,y)   552599.39859999996        8710286.7983599994     
 Grounding Line, (x,y)   552960.42695600004        8710141.3531700000     
 Grounding Line, (x,y)   553502.84768100001        8709582.6218999997     
 Grounding Line, (x,y)   553497.53624499997        8709586.1099999994     
 Grounding Line, (x,y)   553508.01606099994        8709582.9095099997     
 Grounding Line, (x,y)   553530.76984199998        8709546.0610000007     
 Grounding Line, (x,y)   553279.18209500005        8709944.8055499997     
 Grounding Line, (x,y)   553470.89147699997        8709624.0045100003     
 Grounding Line, (x,y)   552599.49357199995        8710286.7722200006     
 Grounding Line, (x,y)   553043.33326600003        8710086.5454799999     
 Grounding Line, (x,y)   553627.45368799998        8709330.1010500006     
 Grounding Line, (x,y)   553627.01083200006        8709330.3383300006     
 Grounding Line, (x,y)   553626.97993300005        8709330.1378300004     
 Grounding Line, (x,y)   553626.82772499998        8709330.1770799998     
 Grounding Line, (x,y)   553279.11736599996        8709945.6358800009     
 Grounding Line, (x,y)   552746.93016500003        8710215.4997700006     
 Grounding Line, (x,y)   552745.83206399996        8710219.1267900001     
 Grounding Line, (x,y)   552747.02308900002        8710215.4675699994     
 Grounding Line, (x,y)   552747.11611199996        8710215.4367900006     
 Grounding Line, (x,y)   553124.88496599998        8710068.0353699997     
 Grounding Line, (x,y)   553124.51352599997        8710050.2288099993     
 Grounding Line, (x,y)   553118.71312800003        8710053.8688500002     
 Grounding Line, (x,y)   553626.87025799998        8709330.0410099998     
 Grounding Line, (x,y)   552960.14523000002        8710142.1698400006     
 Grounding Line, (x,y)   552960.03805300000        8710142.2889300007     
 Grounding Line, (x,y)   552664.50486200000        8710252.9497900009     
 Grounding Line, (x,y)   552664.60688600002        8710252.9550999999     
 Grounding Line, (x,y)   552664.60072400002        8710252.8294300009     
 Grounding Line, (x,y)   553834.66332800000        8709193.9608699996     
 Grounding Line, (x,y)   553831.72009099997        8709201.0514000002     
 Grounding Line, (x,y)   553514.57618099998        8709573.0256800000     
 Grounding Line, (x,y)   553518.43304799998        8709573.3297899999     
 Grounding Line, (x,y)   553514.64897600003        8709572.9598600008     
 Grounding Line, (x,y)   553141.17078699998        8710046.9429700002     
 Grounding Line, (x,y)   553134.92438099999        8710047.3383099996     
 Grounding Line, (x,y)   553145.10179500002        8710049.0791200008     
 Grounding Line, (x,y)   553514.72177199996        8709572.8940500002     
 Grounding Line, (x,y)   553861.89082099998        8709164.0161700007     
 Grounding Line, (x,y)   553878.49239599996        8709172.0328400005     
 Grounding Line, (x,y)   553868.16980399995        8709159.5059099998     
 Grounding Line, (x,y)   553010.01974599995        8710107.5875100009     
 Grounding Line, (x,y)   552625.55286000005        8710274.3168100007     
 Grounding Line, (x,y)   552624.07805999997        8710278.7426200006     
 Grounding Line, (x,y)   552628.05189000000        8710272.9284600001     
 Grounding Line, (x,y)   552664.76522700000        8710252.8577399999     
 Grounding Line, (x,y)   553575.35095999995        8709413.5856400002     
 Grounding Line, (x,y)   553575.36155899998        8709413.4083500002     
 Grounding Line, (x,y)   553575.27347000001        8709413.5351700000     
 Grounding Line, (x,y)   553575.44446999999        8709413.5603999998     
 Grounding Line, (x,y)   553387.63161499996        8709834.5497099999     
 Grounding Line, (x,y)   553387.71205700003        8709834.3311800007     
 Grounding Line, (x,y)   553387.52907299995        8709834.3377599996     
 Grounding Line, (x,y)   553453.22141100001        8709737.9628299996     
 Grounding Line, (x,y)   553453.09823300003        8709738.1156900004     
 Grounding Line, (x,y)   552580.81698799995        8710292.1195500009     
 Grounding Line, (x,y)   552580.80643100000        8710291.9164300002     
 Grounding Line, (x,y)   552580.73297000001        8710292.0491599999     
 Grounding Line, (x,y)   553452.75342099997        8709738.0683600008     
 Grounding Line, (x,y)   553452.65772000002        8709738.1289499998     
 Grounding Line, (x,y)   553452.81056300004        8709738.2407900002     
 Grounding Line, (x,y)   553627.76491400006        8709329.3749400005     
 Grounding Line, (x,y)   553627.78695199999        8709329.2257499993     
 Grounding Line, (x,y)   553627.69252399995        8709329.2319699991     
 Grounding Line, (x,y)   553261.24110999994        8709968.7880700007     
 Grounding Line, (x,y)   553261.19178100000        8709968.9555500001     
 Grounding Line, (x,y)   553261.30043599999        8709968.9310400002     
 Grounding Line, (x,y)   553063.13102700002        8710078.6820599996     
 Grounding Line, (x,y)   553574.89141599997        8709412.5260799993     
 Grounding Line, (x,y)   553574.94531900005        8709412.6501199994     
 Grounding Line, (x,y)   553465.26768499997        8709640.9553500004     
 Grounding Line, (x,y)   553470.12925899995        8709624.6847200003     
 Grounding Line, (x,y)   553470.20008800004        8709624.6067299992     
 Grounding Line, (x,y)   553470.02674899995        8709624.5713599995     
 Grounding Line, (x,y)   553494.73963299999        8709591.7663499992     
 Grounding Line, (x,y)   553626.29919399996        8709330.2449399997     
 Grounding Line, (x,y)   553626.44422399998        8709330.2942500003     
 Grounding Line, (x,y)   553626.40215500002        8709330.1762300003     
 Grounding Line, (x,y)   553130.75119200000        8710053.9072600007     
 Grounding Line, (x,y)   553261.35199999996        8709968.8267499991     
 Grounding Line, (x,y)   553062.40478099999        8710078.6399099994     
 Grounding Line, (x,y)   552916.24143099994        8710160.2675500009     
 Grounding Line, (x,y)   552916.16549399996        8710160.1128800008     
 Grounding Line, (x,y)   552916.07712599996        8710160.1578199994     
 Grounding Line, (x,y)   552959.24051300006        8710142.1884799991     
 Grounding Line, (x,y)   552959.14961800002        8710142.0917300005     
 Grounding Line, (x,y)   552959.04654899996        8710142.1766500007     
 Grounding Line, (x,y)   552918.20651000005        8710162.9484400004     
 Grounding Line, (x,y)   552917.54487500002        8710160.8012899999     
 Grounding Line, (x,y)   553023.99766700005        8710098.7328299992     
 Grounding Line, (x,y)   553027.13607000001        8710093.6329299994     
 Grounding Line, (x,y)   553301.08997700003        8709926.0091699995     
 Grounding Line, (x,y)   553301.39393799996        8709925.9476299994     
 Grounding Line, (x,y)   553492.56524699996        8709589.7238100003     
 Grounding Line, (x,y)   553492.61014899996        8709589.6370899994     
 Grounding Line, (x,y)   553492.47023700003        8709589.6442699991     
 Grounding Line, (x,y)   553260.71438599995        8709969.6794799995     
 Grounding Line, (x,y)   553260.59884400002        8709969.7624800000     
 Grounding Line, (x,y)   553260.71922500001        8709969.8193200007     
 Grounding Line, (x,y)   553452.84739899996        8709738.1127000004     
 Grounding Line, (x,y)   553031.21121800004        8710091.9229899999     
 Grounding Line, (x,y)   553279.69863999996        8709944.8891300000     
 Grounding Line, (x,y)   553279.38431400002        8709944.9924899992     
 Grounding Line, (x,y)   553300.72339299996        8709926.8348200005     
 Grounding Line, (x,y)   553300.69747799996        8709926.7445500009     
 Grounding Line, (x,y)   553300.60742699995        8709926.6865500007     
 Grounding Line, (x,y)   553465.29476199998        8709640.7229699995     
 Grounding Line, (x,y)   553564.42463100003        8709439.3827800006     
 Grounding Line, (x,y)   553564.22686299996        8709439.4536300004     
 Grounding Line, (x,y)   553492.56249100005        8709589.5723400004     
 Grounding Line, (x,y)   553941.45528600004        8709098.1651099995     
 Grounding Line, (x,y)   553941.32305000001        8709098.2073199991     
 Grounding Line, (x,y)   552960.22509399999        8710141.6042599995     
 Grounding Line, (x,y)   552960.30282500002        8710141.5162499994     
 Grounding Line, (x,y)   552960.15737899998        8710141.4723099992     
 Grounding Line, (x,y)   553452.97035500000        8709738.1469400004     
 Grounding Line, (x,y)   553470.16644099995        8709624.5132100005     
 Grounding Line, (x,y)   553128.02136699995        8710048.4771400001     
 Grounding Line, (x,y)   553127.87508300005        8710048.4868599996     
 Grounding Line, (x,y)   553127.94532699999        8710048.6200500000     
 Grounding Line, (x,y)   552692.38681800000        8710241.6453099996     
 Grounding Line, (x,y)   552691.72447000002        8710239.8998099994     
 Grounding Line, (x,y)   552691.63706800004        8710239.9440899994     
 Grounding Line, (x,y)   553279.25750099996        8709944.4840900004     
 Grounding Line, (x,y)   553279.34545499994        8709944.4337600004     
 Grounding Line, (x,y)   553279.23874399997        8709944.3636200000     
 Grounding Line, (x,y)   552691.54966599995        8710239.9883800000     
 Grounding Line, (x,y)   552664.19324000005        8710253.2302800007     
 Grounding Line, (x,y)   552664.11619299999        8710253.1732500009     
 Grounding Line, (x,y)   552664.10792400001        8710253.3043399993     
 Grounding Line, (x,y)   552580.71145800001        8710291.9425799996     
 Grounding Line, (x,y)   553231.83372200001        8710006.3393600006     
 Grounding Line, (x,y)   553232.10867500002        8710007.6195599996     
 Grounding Line, (x,y)   553231.91925699997        8710006.1009500008     
 Grounding Line, (x,y)   553626.49928700004        8709330.2104400005     
 Grounding Line, (x,y)   553719.16885500005        8709298.8182800002     
 Grounding Line, (x,y)   553720.11475299997        8709301.1208800003     
 Grounding Line, (x,y)   553719.20277300000        8709298.3079100009     
 Grounding Line, (x,y)   552664.25778600003        8710253.4405300003     
 Grounding Line, (x,y)   552664.23761700001        8710253.3160999995     
 Grounding Line, (x,y)   552916.26465999999        8710160.6547999997     
 Grounding Line, (x,y)   552960.13622999995        8710141.5730300006     
 Grounding Line, (x,y)   553279.31967300002        8709944.3107799999     
 Grounding Line, (x,y)   553262.03908999998        8709969.4121000003     
 Grounding Line, (x,y)   553261.49128299998        8709969.0345699992     
 Grounding Line, (x,y)   552664.02947099996        8710253.2034399994     
 Grounding Line, (x,y)   553464.90288700000        8709642.5818799995     
 Grounding Line, (x,y)   553465.27705799998        8709642.4939799998     
 Grounding Line, (x,y)   553464.99338100001        8709642.4407400005     
 Grounding Line, (x,y)   553304.20704100002        8709930.6835200004     
 Grounding Line, (x,y)   553291.21130700002        8709933.9126500003     
 Grounding Line, (x,y)   553288.23600100004        8709949.6655100007     
 Grounding Line, (x,y)   553465.07568799995        8709642.3114100005     
 Grounding Line, (x,y)   553464.97363899997        8709642.2827700004     
 Grounding Line, (x,y)   553581.34126699995        8709395.9057299998     
 Grounding Line, (x,y)   553595.00482999999        8709391.4200700000     
 Grounding Line, (x,y)   553583.49364300002        8709390.7075399999     
 Grounding Line, (x,y)   552959.23474099999        8710142.5476200003     
 Grounding Line, (x,y)   552959.21980900003        8710142.4211800005     
 Grounding Line, (x,y)   552959.11950000003        8710142.5216199998     
 Grounding Line, (x,y)   552916.27841399994        8710160.1818599999     
 Grounding Line, (x,y)   553464.69530599995        8709641.8038100004     
 Grounding Line, (x,y)   553464.63095000002        8709641.8713799994     
 Grounding Line, (x,y)   553464.75839800003        8709641.8905599993     
 Grounding Line, (x,y)   553275.92161900003        8709948.3361900002     
 Grounding Line, (x,y)   553271.18124499999        8709954.6757200006     
 Grounding Line, (x,y)   553278.88684100006        8709967.7712099999     
 Grounding Line, (x,y)   553464.79648899997        8709641.7671200000     
 Grounding Line, (x,y)   553478.65599100001        8709655.7364799995     
 Grounding Line, (x,y)   553465.48749800003        8709646.2968799993     
 Grounding Line, (x,y)   553466.84434099996        8709653.3072400000     
 Grounding Line, (x,y)   553574.92394100002        8709413.9996600002     
 Grounding Line, (x,y)   553574.84528100002        8709413.9701899998     
 Grounding Line, (x,y)   553574.88432399998        8709414.0969300009     
 Grounding Line, (x,y)   553443.00591700000        8709755.2302499991     
 Grounding Line, (x,y)   553442.95847700001        8709755.3166000005     
 Grounding Line, (x,y)   553445.08626200003        8709756.0014600009     
 Grounding Line, (x,y)   553442.91607499996        8709755.4056499992     
 Grounding Line, (x,y)   553299.95464699995        8709926.7144399993     
 Grounding Line, (x,y)   553299.83945600002        8709926.6326499991     
 Grounding Line, (x,y)   553299.85083999997        8709926.8057400007     
 Grounding Line, (x,y)   553443.05335599999        8709755.1438999996     
 Grounding Line, (x,y)   553442.87367200002        8709755.4946899991     
 Grounding Line, (x,y)   552800.18594800006        8710194.5225399993     
 Grounding Line, (x,y)   552800.05461200001        8710194.5329899993     
 Grounding Line, (x,y)   553442.83126999997        8709755.5837399997     
 Grounding Line, (x,y)   553278.98467100004        8709944.4450499993     
 Grounding Line, (x,y)   553278.82755199994        8709944.4499399997     
 Grounding Line, (x,y)   553278.97244200006        8709944.5537800007     
 Grounding Line, (x,y)   553278.86305699998        8709944.5901699997     
 Grounding Line, (x,y)   552800.03511699999        8710194.6731800009     
 Grounding Line, (x,y)   552958.98150899995        8710142.5759599991     
 Grounding Line, (x,y)   552959.17749300005        8710142.6786599997     
 Grounding Line, (x,y)   553564.73833700002        8709439.3511200007     
 Grounding Line, (x,y)   553465.13554499997        8709642.3969700001     
 Grounding Line, (x,y)   552582.39636799996        8710297.4752099998     
 Grounding Line, (x,y)   552920.56728800002        8710158.5063300002     
 Grounding Line, (x,y)   552934.74617199996        8710157.9083999991     
 Grounding Line, (x,y)   552925.76465799997        8710156.7738700006     
 Grounding Line, (x,y)   553493.03020000004        8709589.7482099999     
 Grounding Line, (x,y)   552960.07749800000        8710141.6090999991     
 Grounding Line, (x,y)   552959.97766199999        8710141.5517299995     
 Grounding Line, (x,y)   552960.05846299999        8710141.6793499999     
 Grounding Line, (x,y)   553164.16308099998        8710045.5298599992     
 Grounding Line, (x,y)   553170.24226199999        8710049.9157599993     
 Grounding Line, (x,y)   553164.25109699997        8710045.4858500008     
 Grounding Line, (x,y)   552959.27417800005        8710142.3152099997     
 Grounding Line, (x,y)   552959.14466899994        8710142.3011900000     
 Grounding Line, (x,y)   553941.94433400000        8709097.6783000007     
 Grounding Line, (x,y)   553941.96440099995        8709097.7975500003     
 Grounding Line, (x,y)   553942.05244600005        8709097.7071400005     
 Grounding Line, (x,y)   553164.33911399997        8710045.4418400005     
 Grounding Line, (x,y)   552958.95470899995        8710142.2202300001     
 Grounding Line, (x,y)   552958.87174199999        8710142.2644500006     
 Grounding Line, (x,y)   552958.99379199999        8710142.3421100006     
 Grounding Line, (x,y)   553279.42538000003        8709944.3916699998     
 Grounding Line, (x,y)   553837.86510099994        8709190.1359400004     
 Grounding Line, (x,y)   553803.15906199999        8709225.3693499994     
 Grounding Line, (x,y)   553804.29791800003        8709226.9643099997     
 Grounding Line, (x,y)   553803.31871699996        8709225.2565700002     
 Grounding Line, (x,y)   553942.09421600006        8709097.7874299996     
 Grounding Line, (x,y)   553800.32839000004        8709229.3766699992     
 Grounding Line, (x,y)   553805.38522800000        8709244.2293400001     
 Grounding Line, (x,y)   552958.75542199996        8710142.6876500007     
 Grounding Line, (x,y)   553387.76336500002        8709833.9439400006     
 Grounding Line, (x,y)   553387.63070500002        8709833.9869599994     
 Grounding Line, (x,y)   553387.70047899999        8709834.0978599992     
 Grounding Line, (x,y)   552667.15297900001        8710251.5096700005     
 Grounding Line, (x,y)   552682.37664100004        8710258.6692399997     
 Grounding Line, (x,y)   552672.22854499996        8710249.1140100006     
 Grounding Line, (x,y)   553279.41112299997        8709944.3026299998     
 Grounding Line, (x,y)   553279.40418700001        8709944.2034300007     
 Grounding Line, (x,y)   552917.58551799995        8710160.2148000002     
 Grounding Line, (x,y)   552917.74877499999        8710160.1483999994     
 Grounding Line, (x,y)   553629.56715100002        8709333.1858600006     
 Grounding Line, (x,y)   553452.61576900003        8709738.2554700002     
 Grounding Line, (x,y)   553452.54723599995        8709738.1813900005     
 Grounding Line, (x,y)   553387.57351000002        8709834.0923900008     
 Grounding Line, (x,y)   552800.05004600005        8710194.7769399993     
 Grounding Line, (x,y)   552665.32710899995        8710252.3714899998     
 Grounding Line, (x,y)   552666.25498400000        8710256.1219500005     
 Grounding Line, (x,y)   552663.68023599999        8710253.7530799992     
 Grounding Line, (x,y)   552663.58950000000        8710253.8835300002     
 Grounding Line, (x,y)   552663.70034300000        8710253.8388400003     
 Grounding Line, (x,y)   552798.96069800004        8710194.8468600009     
 Grounding Line, (x,y)   553218.25388900004        8710014.6094799992     
 Grounding Line, (x,y)   553493.20831599995        8709589.4885600004     
 Grounding Line, (x,y)   552580.65989400004        8710292.0409200005     
 Grounding Line, (x,y)   553279.29039700003        8709944.1765599996     
 Grounding Line, (x,y)   553574.78121900000        8709414.0348499995     
 Grounding Line, (x,y)   552665.97328999999        8710265.7270599995     
 Grounding Line, (x,y)   552659.58746299997        8710255.4180999994     
 Grounding Line, (x,y)   552653.84294899995        8710258.6053700000     
 Grounding Line, (x,y)   552799.79330999998        8710194.3231899999     
 Grounding Line, (x,y)   552799.70031700004        8710194.2281999998     
 Grounding Line, (x,y)   552799.64618000004        8710194.3326800000     
 Grounding Line, (x,y)   553009.33984899998        8710107.9396800008     
 Grounding Line, (x,y)   553009.42924700002        8710107.9415399991     
 Grounding Line, (x,y)   553009.44532000006        8710107.8231700007     
 Grounding Line, (x,y)   553801.98250299995        8709225.7790099997     
 Grounding Line, (x,y)   553801.88021800003        8709225.8074699994     
 Grounding Line, (x,y)   553452.65181700001        8709737.8842999991     
 Grounding Line, (x,y)   553452.58720099996        8709737.7901600003     
 Grounding Line, (x,y)   553452.53976099996        8709737.8765099999     
 Grounding Line, (x,y)   552958.86724800000        8710142.3519499991     
 Grounding Line, (x,y)   553009.29511800001        8710107.8468600009     
 Grounding Line, (x,y)   553452.67085600004        8709737.7936700005     
 Grounding Line, (x,y)   553387.53223000001        8709834.4980100002     
 Grounding Line, (x,y)   552915.97490200005        8710160.2097999994     
 Grounding Line, (x,y)   553066.62167899997        8710077.3158100005     
 Grounding Line, (x,y)   553080.15450499998        8710080.0718099996     
 Grounding Line, (x,y)   553073.48529300001        8710076.4578600004     
 Grounding Line, (x,y)   553491.81617500004        8709590.4423300009     
 Grounding Line, (x,y)   553491.78489999997        8709590.5348499995     
 Grounding Line, (x,y)   553491.91113499994        8709590.4361199997     
 Grounding Line, (x,y)   553491.91000000003        8709590.1647699997     
 Grounding Line, (x,y)   553491.97401200002        8709590.2222700007     
 Grounding Line, (x,y)   553492.03205899999        8709590.1274299994     
 Grounding Line, (x,y)   553477.10247200006        8709617.4824100006     
 Grounding Line, (x,y)   553475.03986999998        8709619.4921199996     
 Grounding Line, (x,y)   553480.08502100001        8709616.7716600001     
 Grounding Line, (x,y)   553128.51585700002        8710047.8476000000     
 Grounding Line, (x,y)   553128.40940600005        8710047.9250300005     
 Grounding Line, (x,y)   553128.51747199998        8710047.9601199999     
 Grounding Line, (x,y)   553803.24439200002        8709225.9496299997     
 Grounding Line, (x,y)   553468.60306400002        8709629.0132599995     
 Grounding Line, (x,y)   553466.61232600000        8709635.2243600003     
 Grounding Line, (x,y)   553481.65568700002        8709636.3483600002     
 Grounding Line, (x,y)   553491.94127499999        8709590.0722400006     
 Grounding Line, (x,y)   553279.67502400000        8709944.1689299997     
 Grounding Line, (x,y)   553279.88216899999        8709944.1343600005     
 Grounding Line, (x,y)   553279.68258799997        8709943.9965700004     
 Grounding Line, (x,y)   553260.71043099998        8709969.0498500001     
 Grounding Line, (x,y)   553260.57567100006        8709969.0160099994     
 Grounding Line, (x,y)   553260.65933000005        8709969.1368499994     
 Grounding Line, (x,y)   553627.71402700001        8709329.5371400006     
 Grounding Line, (x,y)   553627.62111499999        8709329.5068999995     
 Grounding Line, (x,y)   553279.36433000001        8709944.5441699997     
 Grounding Line, (x,y)   553279.33833299996        8709944.6331699993     
 Grounding Line, (x,y)   553279.46094100003        8709944.6017099991     
 Grounding Line, (x,y)   552979.83609400003        8710148.8126699999     
 Grounding Line, (x,y)   552970.29229799996        8710136.9932100009     
 Grounding Line, (x,y)   553279.39391999994        8709944.7043800000     
 Grounding Line, (x,y)   553452.53877300001        8709738.0773699991     
 Grounding Line, (x,y)   553452.70920399996        8709737.9927299991     
 Grounding Line, (x,y)   553452.76450399996        8709737.8433100004     
 Grounding Line, (x,y)   552663.60272600001        8710253.7299300004     
 Grounding Line, (x,y)   552959.99096500000        8710141.7125000004     
 Grounding Line, (x,y)   553718.12057499995        8709298.7347599994     
 Grounding Line, (x,y)   552831.88243899995        8710187.1058099996     
 Grounding Line, (x,y)   552825.10952299996        8710188.5995300002     
 Grounding Line, (x,y)   552823.84762599994        8710202.8669199999     
 Grounding Line, (x,y)   553128.47081199999        8710048.4354899991     
 Grounding Line, (x,y)   553128.60125800001        8710048.4707500003     
 Grounding Line, (x,y)   553128.55582799995        8710048.3479399998     
 Grounding Line, (x,y)   553029.48147799994        8710090.4641200006     
 Grounding Line, (x,y)   553029.64333600004        8710090.4532900006     
 Grounding Line, (x,y)   553029.50115200004        8710090.3637899999     
 Grounding Line, (x,y)   552799.71059799998        8710194.6704099998     
 Grounding Line, (x,y)   552799.66944900004        8710194.8025000002     
 Grounding Line, (x,y)   552799.78123800003        8710194.7986299992     
 Grounding Line, (x,y)   553231.59938599996        8710006.2600500006     
 Grounding Line, (x,y)   553300.35393700004        8709926.7037599999     
 Grounding Line, (x,y)   553300.28287200001        8709926.6080799997     
 Grounding Line, (x,y)   553300.24119900004        8709926.7685800008     
 Grounding Line, (x,y)   553030.37858799996        8710090.1878800001     
 Grounding Line, (x,y)   553030.30071800004        8710090.1191000007     
 Grounding Line, (x,y)   553030.25756199996        8710090.3001300003     
 Grounding Line, (x,y)   553633.17350899999        8709326.7690900005     
 Grounding Line, (x,y)   553638.70687600004        8709326.9905500002     
 Grounding Line, (x,y)   553635.81566399999        8709325.6593800001     
 Grounding Line, (x,y)   552959.24694500002        8710142.0472100005     
 Grounding Line, (x,y)   552799.68121600000        8710194.4142400008     
 Grounding Line, (x,y)   552720.45288899995        8710225.3440799993     
 Grounding Line, (x,y)   552714.31724999996        8710228.4528000001     
 Grounding Line, (x,y)   552716.54916399997        8710243.7471699994     
 Grounding Line, (x,y)   553128.67191899999        8710048.3798500001     
 Grounding Line, (x,y)   553017.77711400006        8710108.1036300007     
 Grounding Line, (x,y)   553006.56016600004        8710111.2895400003     
 Grounding Line, (x,y)   553004.37044700002        8710114.8384000007     
 Grounding Line, (x,y)   553802.10955800000        8709226.1126899999     
 Grounding Line, (x,y)   553279.58822599996        8709944.0986000001     
 Grounding Line, (x,y)   553470.53893699998        8709624.6410000008     
 Grounding Line, (x,y)   553470.52372900001        8709624.5380700007     
 Grounding Line, (x,y)   553470.44255499996        8709624.6419500001     
 Grounding Line, (x,y)   553802.98712599999        8709224.7786999997     
 Grounding Line, (x,y)   553803.08958000003        8709224.7069799993     
 Grounding Line, (x,y)   553802.93699199997        8709224.6469199993     
 Grounding Line, (x,y)   552805.94404700003        8710192.8263600003     
 Grounding Line, (x,y)   552815.41243200004        8710190.7381699998     
 Grounding Line, (x,y)   553942.16760499997        8709097.8314900007     
 Grounding Line, (x,y)   553942.27242199995        8709097.7572600003     
 Grounding Line, (x,y)   553942.15180500003        8709097.7226700000     
 Grounding Line, (x,y)   552664.13343000005        8710253.6832999997     
 Grounding Line, (x,y)   552664.02382799995        8710253.7293900009     
 Grounding Line, (x,y)   552664.08380499994        8710253.8710099999     
 Grounding Line, (x,y)   553797.50412399997        8709235.8724900000     
 Grounding Line, (x,y)   553942.33996500005        8709097.1398499999     
 Grounding Line, (x,y)   553942.41624599998        8709097.2702500001     
 Grounding Line, (x,y)   553942.45715499995        8709097.1484099999     
 Grounding Line, (x,y)   553802.82954599999        8709225.4695299994     
 Grounding Line, (x,y)   553802.89944399998        8709225.5205799993     
 Grounding Line, (x,y)   553802.88685699995        8709225.3631599993     
 Grounding Line, (x,y)   553942.02997999999        8709097.8767399993     
 Grounding Line, (x,y)   553942.33135899995        8709097.9424900003     
 Grounding Line, (x,y)   553260.50178299996        8709969.5071500000     
 Grounding Line, (x,y)   553260.62216599996        8709969.4323600009     
 Grounding Line, (x,y)   553260.51656000002        8709969.4089199994     
 Grounding Line, (x,y)   553008.89428300003        8710108.1748399995     
 Grounding Line, (x,y)   553009.00941599999        8710108.1379199997     
 Grounding Line, (x,y)   553008.91609900002        8710108.0621600002     
 Grounding Line, (x,y)   553942.42828700005        8709096.8631900009     
 Grounding Line, (x,y)   553942.31212899997        8709096.9211199991     
 Grounding Line, (x,y)   553942.35408800002        8709097.0073099993     
 Grounding Line, (x,y)   553030.19499100000        8710090.1746900007     
 Grounding Line, (x,y)   553261.11991799995        8709968.8607000001     
 Grounding Line, (x,y)   553260.99642900005        8709968.8448200002     
 Grounding Line, (x,y)   553261.07948600000        8709968.9584700000     
 Grounding Line, (x,y)   552663.96549099998        8710253.3328000009     
 Grounding Line, (x,y)   553491.96458599996        8709590.5199800003     
 Grounding Line, (x,y)   553260.97443299997        8709968.9712700006     
 Grounding Line, (x,y)   552799.56805899995        8710194.4408400003     
 Grounding Line, (x,y)   552799.52267900005        8710194.3170200009     
 Grounding Line, (x,y)   553942.44383100001        8709096.9794699997     
 Grounding Line, (x,y)   553300.33161899995        8709926.3468299992     
 Grounding Line, (x,y)   553300.44409200002        8709926.2988600004     
 Grounding Line, (x,y)   553300.29061400006        8709926.2519899998     
 Grounding Line, (x,y)   552799.80713700003        8710194.7084800005     
 Grounding Line, (x,y)   553010.75443900004        8710109.7486799993     
 Grounding Line, (x,y)   553279.11285200005        8709944.4693999998     
 Grounding Line, (x,y)   553279.20613800001        8709944.5535300002     
 Grounding Line, (x,y)   553231.45204999996        8710006.2965099998     
 Grounding Line, (x,y)   553231.31676199997        8710006.3608199991     
 Grounding Line, (x,y)   553062.81231299997        8710078.0961900000     
 Grounding Line, (x,y)   553260.58193500002        8709969.5473900009     
 Grounding Line, (x,y)   553300.37372100004        8709926.1974500008     
 Grounding Line, (x,y)   553468.71184700006        8709641.8291800003     
 Grounding Line, (x,y)   553718.83044299996        8709297.9878300000     
 Grounding Line, (x,y)   553718.76054199995        8709298.0566799995     
 Grounding Line, (x,y)   553718.84077000001        8709298.1545100007     
 Grounding Line, (x,y)   553300.16294600000        8709926.6774799991     
 Grounding Line, (x,y)   552799.78913599998        8710194.1837900002     
 Grounding Line, (x,y)   553627.49907100003        8709329.5062499996     
 Grounding Line, (x,y)   553299.69800900004        8709927.1982400008     
 Grounding Line, (x,y)   553457.62350600003        8709741.1122999992     
 Grounding Line, (x,y)   553128.38546000002        8710047.7989700008     
 Grounding Line, (x,y)   553470.40558599995        8709624.5562800001     
 Grounding Line, (x,y)   553718.91836300003        8709298.0398299992     
 Grounding Line, (x,y)   553279.12468300003        8709944.5913200006     
 Grounding Line, (x,y)   553261.14055600006        8709968.3039699998     
 Grounding Line, (x,y)   553261.08330099995        8709968.1801999994     
 Grounding Line, (x,y)   553261.02354199998        8709968.2601200007     
 Grounding Line, (x,y)   553029.59231300000        8710090.3309199996     
 Grounding Line, (x,y)   553061.13627100002        8710078.3753100000     
 Grounding Line, (x,y)   553061.21264799999        8710078.5081999991     
 Grounding Line, (x,y)   553061.22192299995        8710078.3794100005     
 Grounding Line, (x,y)   553387.66925699997        8709833.8412599992     
 Grounding Line, (x,y)   553802.79870699998        8709224.8896699995     
 Grounding Line, (x,y)   553802.80985600001        8709225.0057699997     
 Grounding Line, (x,y)   553802.90186400001        8709224.8747300003     
 Grounding Line, (x,y)   553491.89928500005        8709590.6076800004     
 Grounding Line, (x,y)   552799.61912299995        8710194.7165699992     
 Grounding Line, (x,y)   553231.71688299999        8710005.7512699999     
 Grounding Line, (x,y)   553231.60865700000        8710005.7871199995     
 Grounding Line, (x,y)   553231.71548699995        8710005.8621800002     
 Grounding Line, (x,y)   553231.61721299996        8710005.7042900007     
 Grounding Line, (x,y)   552579.31679399998        8710292.7319099996     
 Grounding Line, (x,y)   552579.21525699995        8710292.6411400009     
 Grounding Line, (x,y)   552579.21181899996        8710292.8033700008     
 Grounding Line, (x,y)   553387.57793000003        8709833.8815299999     
 Grounding Line, (x,y)   553464.80316999997        8709641.1698199995     
 Grounding Line, (x,y)   553464.79313699994        8709641.2947899997     
 Grounding Line, (x,y)   553464.87927200005        8709641.2809699997     
 Grounding Line, (x,y)   553300.45682700002        8709926.1429099999     
 Grounding Line, (x,y)   553708.53938099998        8709302.5758999996     
 Grounding Line, (x,y)   553720.06494299998        8709310.2230200004     
 Grounding Line, (x,y)   553714.21961999999        8709299.7839100007     
 Grounding Line, (x,y)   553300.54241500003        8709926.2146600001     
 Grounding Line, (x,y)   553802.96212899999        8709225.0144299995     
 Grounding Line, (x,y)   552800.03094299999        8710194.3045400009     
 Grounding Line, (x,y)   552799.90375800000        8710194.3012099992     
 Grounding Line, (x,y)   552799.91041000001        8710194.3925800007     
 Grounding Line, (x,y)   553387.03494699998        8709834.5893699992     
 Grounding Line, (x,y)   553387.02956299996        8709834.6925200000     
 Grounding Line, (x,y)   553261.17809099995        8709968.1960899998     
 Grounding Line, (x,y)   552799.99490599998        8710194.4322800003     
 Grounding Line, (x,y)   553301.00308800000        8709925.9572999999     
 Grounding Line, (x,y)   553301.09540200001        8709925.9026400000     
 Grounding Line, (x,y)   553260.67651200003        8709968.9661599994     
 Grounding Line, (x,y)   553802.19935799995        8709225.3321700003     
 Grounding Line, (x,y)   553802.21511800005        8709225.4213299993     
 Grounding Line, (x,y)   553802.32910300000        8709225.3094699997     
 Grounding Line, (x,y)   553453.52082099998        8709736.9214299992     
 Grounding Line, (x,y)   553453.53289300005        8709736.8132300004     
 Grounding Line, (x,y)   553537.97017999995        8709501.0407100003     
 Grounding Line, (x,y)   553552.12829499994        8709490.1268199999     
 Grounding Line, (x,y)   553538.77038300002        8709493.0958399996     
 Grounding Line, (x,y)   553627.92680400005        8709329.2957099993     
 Grounding Line, (x,y)   553470.33048400003        8709624.6308299992     
 Grounding Line, (x,y)   553470.25341300003        8709624.7010800000     
 Grounding Line, (x,y)   553470.37274400005        8709624.7390599996     
 Grounding Line, (x,y)   553914.63816500001        8709119.9069699999     
 Grounding Line, (x,y)   553915.17901099997        8709121.2035200000     
 Grounding Line, (x,y)   553914.72062499996        8709119.8536900003     
 Grounding Line, (x,y)   553128.41046499996        8710048.0964100007     
 Grounding Line, (x,y)   553128.41581499996        8710048.2259800006     
 Grounding Line, (x,y)   553128.52050400001        8710048.2106199991     
 Grounding Line, (x,y)   553914.80308600003        8709119.8004100006     
 Grounding Line, (x,y)   553260.91475500003        8709969.3414299991     
 Grounding Line, (x,y)   553260.82298199995        8709969.2619800009     
 Grounding Line, (x,y)   553260.76980799995        8709969.3615000006     
 Grounding Line, (x,y)   553260.86868299998        8709969.4237600006     
 Grounding Line, (x,y)   552579.13507600001        8710292.6990499999     
 Grounding Line, (x,y)   552579.05489499995        8710292.7569600008     
 Grounding Line, (x,y)   552663.94571400003        8710253.6206000000     
 Grounding Line, (x,y)   552663.88055700005        8710253.6918299999     
 Grounding Line, (x,y)   553492.88230000006        8709589.5021400005     
 Grounding Line, (x,y)   553492.83886000002        8709589.5934699997     
 Grounding Line, (x,y)   553492.95396800002        8709589.6021500006     
 Grounding Line, (x,y)   553774.90432700003        8709271.6462399997     
 Grounding Line, (x,y)   553774.91349199996        8709276.2594099995     
 Grounding Line, (x,y)   553779.02944299998        8709266.2740000002     
 Grounding Line, (x,y)   553062.00534899998        8710078.2917500008     
 Grounding Line, (x,y)   553062.08486099995        8710078.2284500003     
 Grounding Line, (x,y)   553061.94215400005        8710078.1739600003     
 Grounding Line, (x,y)   553128.12404799997        8710048.2563600000     
 Grounding Line, (x,y)   553128.22811599995        8710048.2848099992     
 Grounding Line, (x,y)   553128.24831199995        8710048.2074400000     
 Grounding Line, (x,y)   553029.97063999996        8710089.9186799992     
 Grounding Line, (x,y)   553029.87806000002        8710089.8694100007     
 Grounding Line, (x,y)   553029.84479700006        8710089.9843799993     
 Grounding Line, (x,y)   552664.05803800002        8710253.6445599999     
 Grounding Line, (x,y)   553260.70877799997        8709968.8803199995     
 Grounding Line, (x,y)   553260.79228900000        8709968.7848300003     
 Grounding Line, (x,y)   553260.66498500004        8709968.7396399993     
 Grounding Line, (x,y)   553008.92904099997        8710108.3874200005     
 Grounding Line, (x,y)   553008.80051199999        8710108.3067099992     
 Grounding Line, (x,y)   553008.69084800000        8710108.4577600006     
 Grounding Line, (x,y)   553008.80427700002        8710108.1235099994     
 Grounding Line, (x,y)   552959.09343100002        8710142.4134999998     
 Grounding Line, (x,y)   553260.98617599998        8709968.6242100000     
 Grounding Line, (x,y)   553261.07449999999        8709968.6857600007     
 Grounding Line, (x,y)   553261.10040200001        8709968.5830300003     
 Grounding Line, (x,y)   553029.39473700000        8710090.5052099992     
 Grounding Line, (x,y)   553029.26108099998        8710090.4709200002     
 Grounding Line, (x,y)   553261.01935399999        8709968.5334300008     
 Grounding Line, (x,y)   553464.69578499999        8709641.2039700001     
 Grounding Line, (x,y)   553470.78842300002        8709624.0806799997     
 Grounding Line, (x,y)   553470.85045300005        8709624.1505299993     
 Grounding Line, (x,y)   553301.08971700002        8709926.1256399993     
 Grounding Line, (x,y)   553030.52466800006        8710090.5091699995     
 Grounding Line, (x,y)   553386.23833299999        8709834.8355700001     
 Grounding Line, (x,y)   553386.27165699995        8709834.9819900002     
 Grounding Line, (x,y)   553386.32941899996        8709834.8659300003     
 Grounding Line, (x,y)   553942.16617200000        8709097.5511099994     
 Grounding Line, (x,y)   553942.20496200002        8709097.6448700000     
 Grounding Line, (x,y)   553942.26755900006        8709097.5265800003     
 Grounding Line, (x,y)   553492.48167300003        8709589.8984399997     
 Grounding Line, (x,y)   553492.38395000005        8709589.8499100003     
 Grounding Line, (x,y)   553492.35413899994        8709589.9432399999     
 Grounding Line, (x,y)   553029.34771500004        8710090.4349199999     
 Grounding Line, (x,y)   553279.58278199995        8709943.9574800003     
 Grounding Line, (x,y)   553062.37287800002        8710078.1523499992     
 Grounding Line, (x,y)   553062.32733999996        8710078.2277000006     
 Grounding Line, (x,y)   553062.45028400002        8710078.1741400007     
 Grounding Line, (x,y)   553942.37474500004        8709097.6009100005     
 Grounding Line, (x,y)   553942.29148000001        8709097.6419300009     
 Grounding Line, (x,y)   553470.34068799997        8709624.8811900001     
 Grounding Line, (x,y)   553470.37641699996        8709624.9822000004     
 Grounding Line, (x,y)   553301.01960600005        8709925.8583000004     
 Grounding Line, (x,y)   553300.95546600001        8709925.8156800009     
 Grounding Line, (x,y)   553300.90548800002        8709925.9181699995     
 Grounding Line, (x,y)   553260.47222800006        8709969.7036000006     
 Grounding Line, (x,y)   553260.45744999999        8709969.8018299993     
 Grounding Line, (x,y)   552799.86776499997        8710194.2378100008     
 Grounding Line, (x,y)   553259.85716799996        8709973.7919399999     
 Grounding Line, (x,y)   553258.72072400001        8709981.3459500000     
 Grounding Line, (x,y)   553259.98988100002        8709989.5255399998     
 Grounding Line, (x,y)   552664.03301500005        8710253.5731099993     
 Grounding Line, (x,y)   553574.98673100001        8709414.1931699999     
 Grounding Line, (x,y)   553574.84763600002        8709414.3303500004     
 Grounding Line, (x,y)   553575.22302999999        8709414.3703199998     
 Grounding Line, (x,y)   553574.83607099997        8709414.1977500003     
 Grounding Line, (x,y)   552662.97958499996        8710253.6799800005     
 Grounding Line, (x,y)   552662.97689000005        8710253.5375100002     
[...]
 Grounding Line, (x,y)   552960.24723800004        8710141.4326000009     
 Grounding Line, (x,y)   552958.64564700006        8710142.1961199995     
 Grounding Line, (x,y)   552939.57315199997        8710151.8286899999     
 Grounding Line, (x,y)   552938.90396400006        8710152.1666599996     
 Grounding Line, (x,y)   552938.56348400004        8710152.3386199996     
 Grounding Line, (x,y)   552938.46218599996        8710152.3897799999     
 Grounding Line, (x,y)   552938.37391400000        8710152.4343699999     
 Grounding Line, (x,y)   552938.28564200003        8710152.4789499994     
 Grounding Line, (x,y)   552938.19736999995        8710152.5235300008     
 Grounding Line, (x,y)   552938.10909799999        8710152.5681100003     
 Grounding Line, (x,y)   552938.02082600002        8710152.6126899999     
 Grounding Line, (x,y)   552937.93255400006        8710152.6572799999     
 Grounding Line, (x,y)   552937.84428199998        8710152.7018599994     
 Grounding Line, (x,y)   552937.75601000001        8710152.7464400008     
 Grounding Line, (x,y)   552937.39081799996        8710152.8984900005     
 Grounding Line, (x,y)   552937.29649500002        8710152.9299299996     
 Grounding Line, (x,y)   552937.20217099995        8710152.9613700006     
 Grounding Line, (x,y)   552937.10784700001        8710152.9928099997     
 Grounding Line, (x,y)   552937.01352399995        8710153.0242500007     
 Grounding Line, (x,y)   552936.91920000000        8710153.0556899998     
 Grounding Line, (x,y)   552936.82487600006        8710153.0871300008     
 Grounding Line, (x,y)   552936.73055300000        8710153.1185699999     
 Grounding Line, (x,y)   552936.63622900005        8710153.1500199996     
 Grounding Line, (x,y)   552936.52603499999        8710153.1867500003     
 Grounding Line, (x,y)   552936.15407499997        8710153.3107299991     
 Grounding Line, (x,y)   552935.42034399998        8710153.5553099997     
 Grounding Line, (x,y)   552918.16892400000        8710159.3057799991     
 Grounding Line, (x,y)   552917.90403700003        8710159.3940800000     
 Grounding Line, (x,y)   552915.63060300006        8710160.3848599996     
 Grounding Line, (x,y)   552891.68315599998        8710172.5615299996     
 Grounding Line, (x,y)   552891.59478900000        8710172.6064599995     
 Grounding Line, (x,y)   552891.50642100000        8710172.6513999999     
 Grounding Line, (x,y)   552891.41805400001        8710172.6963299997     
 Grounding Line, (x,y)   552891.32968700002        8710172.7412599996     
 Grounding Line, (x,y)   552891.24131900002        8710172.7861899994     
 Grounding Line, (x,y)   552891.15295200003        8710172.8311299998     
 Grounding Line, (x,y)   552891.06458500004        8710172.8760599997     
 Grounding Line, (x,y)   552890.97621700005        8710172.9209899995     
 Grounding Line, (x,y)   552890.62716000003        8710173.1027600002     
 Grounding Line, (x,y)   552890.54099799995        8710173.1487099994     
 Grounding Line, (x,y)   552890.45483700000        8710173.1946699992     
 Grounding Line, (x,y)   552890.36867600004        8710173.2406200003     
 Grounding Line, (x,y)   552890.28251399996        8710173.2865699995     
 Grounding Line, (x,y)   552890.19635300001        8710173.3325299993     
 Grounding Line, (x,y)   552890.11019100004        8710173.3784800004     
 Grounding Line, (x,y)   552890.02402999997        8710173.4244299997     
 Grounding Line, (x,y)   552889.93786900002        8710173.4703800008     
 Grounding Line, (x,y)   552889.84267499996        8710173.5211500004     
 Grounding Line, (x,y)   552874.90782299999        8710181.4864099994     
 Grounding Line, (x,y)   552872.73366499995        8710182.6459599994     
 Grounding Line, (x,y)   552872.11843599996        8710182.9740800001     
 Grounding Line, (x,y)   552871.80274299998        8710183.1424499992     
 Grounding Line, (x,y)   552871.70754900004        8710183.1932200007     
 Grounding Line, (x,y)   552871.62138799997        8710183.2391700000     
 Grounding Line, (x,y)   552871.53522600001        8710183.2851299997     
 Grounding Line, (x,y)   552871.44906500005        8710183.3310800008     
 Grounding Line, (x,y)   552871.36290399998        8710183.3770300001     
 Grounding Line, (x,y)   552871.27674200002        8710183.4229799993     
 Grounding Line, (x,y)   552871.19058099994        8710183.4689399991     
 Grounding Line, (x,y)   552871.10441899998        8710183.5148900002     
 Grounding Line, (x,y)   552871.01825800003        8710183.5608399995     
 Grounding Line, (x,y)   552870.64820499998        8710183.6667800006     
 Grounding Line, (x,y)   552870.54934000003        8710183.6738000009     
 Grounding Line, (x,y)   552870.45047499996        8710183.6808100007     
 Grounding Line, (x,y)   552870.35161000001        8710183.6878299993     
 Grounding Line, (x,y)   552870.25274499995        8710183.6948499996     
 Grounding Line, (x,y)   552870.15387899999        8710183.7018599994     
 Grounding Line, (x,y)   552870.05501400004        8710183.7088799998     
 Grounding Line, (x,y)   552869.95614899998        8710183.7158899996     
 Grounding Line, (x,y)   552869.85728400003        8710183.7229100000     
 Grounding Line, (x,y)   552869.74299599999        8710183.7310199998     
 Grounding Line, (x,y)   552869.35812999995        8710183.7583300006     
 Grounding Line, (x,y)   552868.60055700003        8710183.8121000007     
 Grounding Line, (x,y)   552865.88781999995        8710184.0046100002     
 Grounding Line, (x,y)   552858.39561999997        8710184.5363200009     
 Grounding Line, (x,y)   552841.43960799999        8710185.7396499999     
 Grounding Line, (x,y)   552802.47935899999        8710193.5904799998     
 Grounding Line, (x,y)   552801.21152200003        8710193.8700900003     
 Grounding Line, (x,y)   552797.76233199995        8710195.1971899997     
 Grounding Line, (x,y)   552779.20192000002        8710204.4773999993     
 Grounding Line, (x,y)   552778.51510299998        8710204.8208000008     
 Grounding Line, (x,y)   552778.16663400002        8710204.9950399995     
 Grounding Line, (x,y)   552778.06330599997        8710205.0467000008     
 Grounding Line, (x,y)   552777.97448700003        8710205.0911100004     
 Grounding Line, (x,y)   552776.98907000001        8710205.5523600001     
 Grounding Line, (x,y)   552776.89604699996        8710205.5831400007     
 Grounding Line, (x,y)   552776.80302400002        8710205.6139199995     
 Grounding Line, (x,y)   552776.71000099997        8710205.6447000001     
 Grounding Line, (x,y)   552776.61697700003        8710205.6754800007     
 Grounding Line, (x,y)   552776.52395399997        8710205.7062599994     
 Grounding Line, (x,y)   552776.43093100004        8710205.7370299995     
 Grounding Line, (x,y)   552776.33790799999        8710205.7678100001     
 Grounding Line, (x,y)   552776.24488500005        8710205.7985900007     
 Grounding Line, (x,y)   552776.14111099998        8710205.8329300005     
 Grounding Line, (x,y)   552775.79553999996        8710205.9472700004     
 Grounding Line, (x,y)   552775.12054899998        8710206.1706200000     
 Grounding Line, (x,y)   552749.07765600004        8710214.7877500001     
 Grounding Line, (x,y)   552748.40266499994        8710215.0110899992     
 Grounding Line, (x,y)   552748.05709400005        8710215.1254399996     
 Grounding Line, (x,y)   552747.95331999997        8710215.1597700007     
 Grounding Line, (x,y)   552747.86029700004        8710215.1905499995     
 Grounding Line, (x,y)   552747.76727399998        8710215.2213300001     
 Grounding Line, (x,y)   552747.67425100005        8710215.2521100007     
 Grounding Line, (x,y)   552747.58122699999        8710215.2828899994     
 Grounding Line, (x,y)   552747.48820400005        8710215.3136700001     
 Grounding Line, (x,y)   552747.39518100000        8710215.3444500007     
 Grounding Line, (x,y)   552747.30215799995        8710215.3752299994     
 Grounding Line, (x,y)   552747.20913500001        8710215.4060100000     
 Grounding Line, (x,y)   552746.83724100003        8710215.5319699999     
 Grounding Line, (x,y)   552746.74431800004        8710215.5641699992     
 Grounding Line, (x,y)   552746.65139400004        8710215.5963799991     
 Grounding Line, (x,y)   552746.55847000005        8710215.6285800003     
 Grounding Line, (x,y)   552746.46554600005        8710215.6607799996     
 Grounding Line, (x,y)   552746.37262200005        8710215.6929800007     
 Grounding Line, (x,y)   552746.27969800006        8710215.7251800001     
 Grounding Line, (x,y)   552746.18677499995        8710215.7573799994     
 Grounding Line, (x,y)   552746.09385099995        8710215.7895800006     
 Grounding Line, (x,y)   552745.98904699995        8710215.8258999996     
 Grounding Line, (x,y)   552745.63863499998        8710215.9473299999     
 Grounding Line, (x,y)   552744.95249399997        8710216.1851000004     
 Grounding Line, (x,y)   552693.82174299995        8710238.8371900003     
 Grounding Line, (x,y)   552692.67102999997        8710239.4202200007     
 Grounding Line, (x,y)   552692.34637699998        8710239.5847100001     
 Grounding Line, (x,y)   552692.24888199999        8710239.6341100000     
 Grounding Line, (x,y)   552692.16148000001        8710239.6783900000     
 Grounding Line, (x,y)   552692.07407800003        8710239.7226800006     
 Grounding Line, (x,y)   552691.98667599994        8710239.7669600006     
 Grounding Line, (x,y)   552691.89927399997        8710239.8112400007     
 Grounding Line, (x,y)   552691.81187199999        8710239.8555299994     
 Grounding Line, (x,y)   552691.19444600004        8710240.1621000003     
 Grounding Line, (x,y)   552691.10423699999        8710240.2046799995     
 Grounding Line, (x,y)   552691.01402899995        8710240.2472600006     
 Grounding Line, (x,y)   552690.92382100003        8710240.2898399998     
 Grounding Line, (x,y)   552690.83361199999        8710240.3324200008     
 Grounding Line, (x,y)   552690.74340399995        8710240.3749899995     
 Grounding Line, (x,y)   552690.65319500002        8710240.4175700005     
 Grounding Line, (x,y)   552690.56298699998        8710240.4601499997     
 Grounding Line, (x,y)   552690.47277800005        8710240.5027300008     
 Grounding Line, (x,y)   552690.36618999997        8710240.5530399997     
 Grounding Line, (x,y)   552690.00562499999        8710240.7232300006     
 Grounding Line, (x,y)   552689.29278400005        8710241.0596900005     
 Grounding Line, (x,y)   552664.82013200002        8710252.6107800007     
 Grounding Line, (x,y)   552662.71051799995        8710253.6853000000     
 Grounding Line, (x,y)   552662.39390899998        8710253.8609699998     
 Grounding Line, (x,y)   552661.77592199994        8710254.2038499992     
 Grounding Line, (x,y)   552649.57130800001        8710260.9754499998     
 Grounding Line, (x,y)   552648.00488100003        8710261.8445599992     
 Grounding Line, (x,y)   552647.56254600000        8710262.0899800006     
 Grounding Line, (x,y)   552647.33527200005        8710262.2160800006     
 Grounding Line, (x,y)   552647.24968300003        8710262.2635699995     
 Grounding Line, (x,y)   552647.16409400001        8710262.3110600002     
 Grounding Line, (x,y)   552647.07850499998        8710262.3585499991     
 Grounding Line, (x,y)   552646.99291599996        8710262.4060399998     
 Grounding Line, (x,y)   552646.90732700005        8710262.4535300005     
 Grounding Line, (x,y)   552646.82173800003        8710262.5010100007     
 Grounding Line, (x,y)   552646.73614800000        8710262.5484999996     
 Grounding Line, (x,y)   552646.65055899997        8710262.5959900003     
 Grounding Line, (x,y)   552646.04293300002        8710262.9334399998     
 Grounding Line, (x,y)   552645.95564299996        8710262.9819300007     
 Grounding Line, (x,y)   552645.86835300003        8710263.0304300003     
 Grounding Line, (x,y)   552645.78106399998        8710263.0789199993     
 Grounding Line, (x,y)   552645.69377400004        8710263.1274100002     
 Grounding Line, (x,y)   552645.60648399999        8710263.1759099998     
 Grounding Line, (x,y)   552645.50296499999        8710263.2334199995     
 Grounding Line, (x,y)   552645.15256299998        8710263.4280900005     
 Grounding Line, (x,y)   552624.85962000000        8710274.7019400001     
 Grounding Line, (x,y)   552624.50921799999        8710274.8966099992     
 Grounding Line, (x,y)   552624.40569900000        8710274.9541200008     
 Grounding Line, (x,y)   552624.31840900006        8710275.0026200004     
 Grounding Line, (x,y)   552624.23111900000        8710275.0511099994     
 Grounding Line, (x,y)   552624.14382999996        8710275.0996100008     
 Grounding Line, (x,y)   552624.05654000002        8710275.1480999999     
 Grounding Line, (x,y)   552623.96924999997        8710275.1965900008     
 Grounding Line, (x,y)   552623.88196100004        8710275.2450900003     
 Grounding Line, (x,y)   552623.79467099998        8710275.2935799994     
 Grounding Line, (x,y)   552623.70738100004        8710275.3420800008     
 Grounding Line, (x,y)   552623.35198000004        8710275.5244500004     
 Grounding Line, (x,y)   552623.26156999997        8710275.5671500005     
 Grounding Line, (x,y)   552623.17115900002        8710275.6098400000     
 Grounding Line, (x,y)   552623.08074799995        8710275.6525400002     
 Grounding Line, (x,y)   552622.99033700000        8710275.6952299997     
 Grounding Line, (x,y)   552622.89992700005        8710275.7379199993     
 Grounding Line, (x,y)   552622.80951599998        8710275.7806199994     
 Grounding Line, (x,y)   552622.71910500003        8710275.8233100008     
 Grounding Line, (x,y)   552622.62869399996        8710275.8660100009     
 Grounding Line, (x,y)   552622.52098000003        8710275.9168699998     
 Grounding Line, (x,y)   552622.15611400001        8710276.0891699996     
 Grounding Line, (x,y)   552621.43362400006        8710276.4303399995     
 Grounding Line, (x,y)   552618.82613199996        8710277.6616600007     
 Grounding Line, (x,y)   552604.29521500005        8710284.5234800000     
 Grounding Line, (x,y)   552601.68772299995        8710285.7547999993     
 Grounding Line, (x,y)   552600.96523300000        8710286.0959699992     
 Grounding Line, (x,y)   552600.60036699998        8710286.2682700008     
 Grounding Line, (x,y)   552600.49265200004        8710286.3191400003     
 Grounding Line, (x,y)   552600.40224199998        8710286.3618299998     
 Grounding Line, (x,y)   552600.31183100003        8710286.4045199994     
 Grounding Line, (x,y)   552600.22141999996        8710286.4472199995     
 Grounding Line, (x,y)   552600.13100900000        8710286.4899099991     
 Grounding Line, (x,y)   552600.04059900006        8710286.5326099992     
 Grounding Line, (x,y)   552599.95018799999        8710286.5753000006     
 Grounding Line, (x,y)   552599.85977700003        8710286.6179900002     
 Grounding Line, (x,y)   552599.76936599996        8710286.6606900003     
 Grounding Line, (x,y)   552599.20865399996        8710286.8506499995     
 Grounding Line, (x,y)   552599.11368099996        8710286.8768000007     
 Grounding Line, (x,y)   552599.01870899997        8710286.9029399995     
 Grounding Line, (x,y)   552598.92373599997        8710286.9290900007     
 Grounding Line, (x,y)   552598.82876299997        8710286.9552299995     
 Grounding Line, (x,y)   552598.73378999997        8710286.9813700002     
 Grounding Line, (x,y)   552598.63881799998        8710287.0075199995     
 Grounding Line, (x,y)   552598.53116699995        8710287.0371499993     
 Grounding Line, (x,y)   552598.17063900002        8710287.1363999993     
 Grounding Line, (x,y)   552597.46391499997        8710287.3309499994     
 Grounding Line, (x,y)   552581.56906699995        8710291.7064900007     
 Grounding Line, (x,y)   553942.78819500003        8709096.5212099999     
 Grounding Line, (x,y)   553942.48858400004        8709096.7118699998     
 Grounding Line, (x,y)   552799.99929399998        8710195.1435000002     
 Grounding Line, (x,y)   553009.49469900003        8710107.9796399996     
 Grounding Line, (x,y)   553565.06029499997        8709438.5996800009     
 Grounding Line, (x,y)   553062.58209000004        8710078.2835399993     
 Grounding Line, (x,y)   553453.49014200002        8709737.4056700002     
 Grounding Line, (x,y)   553563.98940700002        8709439.6002500001     
 Grounding Line, (x,y)   553387.62747399998        8709834.2222700007     
 Grounding Line, (x,y)   553575.37231100001        8709413.0131299999     
 Grounding Line, (x,y)   552799.98951700004        8710195.0331599992     
 Grounding Line, (x,y)   553300.81413099996        8709926.1737300009     
GroundedSolver: Done
Loading user function library: [ElmerIceSolvers]...[GroundedSolver_post]
MAIN: 
MAIN: -------------------------------------
MAIN:  Steady state iteration:            1
MAIN: -------------------------------------
MAIN: 
SingleSolver: Attempting to call solver
SingleSolver: Solver Equation string is: heightdepth
StructuredProjectToPlane: ------------------------------------------
StructuredProjectToPlane: Performing projection on a structured mesh
StructuredProjectToPlane: ------------------------------------------
DetectExtrudedStructure: Determining extruded structure
DetectExtrudedStructure: Unit vector of direction:   0.000   0.000   1.000
DetectExtrudedStructure: determine top and bottom pointers
DetectExtrudedStructure: Layered structure detected in 14 cycles
DetectExtrudedStructure:  Top and bottom pointer init time:   0.12820800000000077
DetectExtrudedStructure: Top and bottom pointer init rounds: 14
DetectExtrudedStructure: Number of nodes at the top: 29901
DetectExtrudedStructure: Number of nodes at the bottom: 29901
StructuredProjectToPlane: Created variable: depth
StructuredProjectToPlane: Created variable: height
StructuredProjectToPlane:  Projection time:    1.2923999999999936E-002
StructuredProjectToPlane: ------------------------------------------
Loading user function library: [StructuredProjectToPlane]...[StructuredProjectToPlane_post]
SingleSolver: Attempting to call solver
SingleSolver: Solver Equation string is: resultoutput
ResultOutputSolver: -------------------------------------
ResultOutputSolver: Saving with prefix: tb_s2_depthcalc
ResultOutputSolver: Working on mesh:
ResultOutputSolver: Dimension of mesh is: 3
ResultOutputSolver: Creating list for saving - if not present
ResultOutputSolver: Saving in unstructured VTK XML (.vtu) format
VtuOutputSolver: Saving results in VTK XML format with prefix: tb_s2_depthcalc
VtuOutputSolver: Saving number of partitions: 1
SolverOutputDirectory: Creating directory: ./vtuoutputs
GenerateSaveMask: Number of active elements 950140 out of 950140
GenerateSaveMask: Number of geometry nodes 448515 out of 448515
VtuOutputSolver: Total number of geometry nodes to save: 448515
VtuOutputSolver: Total number of dof nodes to save: 448515
VtuOutputSolver: Total number of elements to save: 950140
VtuOutputSolver: Setting offset for boundary entities: 100
VtuOutputSolver: Writing the vtu file: ./vtuoutputs/tb_s2_depthcalc_t0001.vtu
AscBinWriteInit: Initializing buffered ascii/binary writing
ResultOutputSolver: -------------------------------------
Loading user function library: [ResultOutputSolve]...[ResultOutputSolver_post]
SaveResult: -----------------------------------------
SaveResult: Saving results to file: ./TB_S2_depthcalc_.result
SaveResult: Done writing results file
SaveResult: -----------------------------------------
ReloadInputFile: Realoading input file
LoadInputFile: Loading input file:
ElmerSolver: *** Elmer Solver: ALL DONE ***
ElmerSolver: The end
SOLVER TOTAL TIME(CPU,REAL):        18.77       24.29
ELMER SOLVER FINISHED AT: 2021/07/30 14:42:17
